
 OpenBabel05151017233D

 24 24  0  0  0  0  0  0  0  0999 V2000
   -0.5874    1.7395    0.8671 C   0  0  0  0  0
    0.8147    1.7993    0.2692 C   0  0  0  0  0
    1.0034    0.6606   -0.7377 C   0  0  0  0  0
    0.6475   -0.6823   -0.1074 C   0  0  0  0  0
   -0.7423   -0.6424    0.5731 C   0  0  0  0  0
   -0.8736    0.4724    1.4581 O   0  0  0  0  0
    1.6734   -0.9731    0.8770 O   0  0  0  0  0
    2.3757    0.6581   -1.1674 O   0  0  0  0  0
    1.0167    3.0509   -0.3918 O   0  0  0  0  0
   -1.9212   -0.6685   -0.4327 C   0  0  0  0  0
   -0.8056   -1.8326    1.3835 O   0  0  0  0  0
   -1.9703   -1.9272   -1.1034 O   0  0  0  0  0
   -1.3496    1.9859    0.1183 H   0  0  0  0  0
   -0.6855    2.5028    1.6472 H   0  0  0  0  0
    1.5656    1.7264    1.0650 H   0  0  0  0  0
    0.3978    0.8474   -1.6314 H   0  0  0  0  0
    0.7144   -1.4931   -0.8408 H   0  0  0  0  0
    1.2163   -1.5375    1.5395 H   0  0  0  0  0
    2.8487    0.1292   -0.4884 H   0  0  0  0  0
    1.8629    2.9527   -0.8737 H   0  0  0  0  0
   -1.8476    0.1293   -1.1772 H   0  0  0  0  0
   -2.8679   -0.5414    0.1047 H   0  0  0  0  0
   -1.4733   -2.4051    0.9615 H   0  0  0  0  0
   -2.7459   -1.9069   -1.6960 H   0  0  0  0  0
  2  1  1  0  0  0
  1  6  1  0  0  0
  1 13  1  0  0  0
  1 14  1  0  0  0
  2  9  1  0  0  0
  3  2  1  0  0  0
  2 15  1  0  0  0
  3  8  1  0  0  0
  4  3  1  0  0  0
  3 16  1  0  0  0
  4  7  1  0  0  0
  5  4  1  0  0  0
  4 17  1  0  0  0
  6  5  1  0  0  0
  5 10  1  0  0  0
  5 11  1  0  0  0
  7 18  1  0  0  0
  8 19  1  0  0  0
  9 20  1  0  0  0
 10 12  1  0  0  0
 10 21  1  0  0  0
 10 22  1  0  0  0
 11 23  1  0  0  0
 12 24  1  0  0  0
M  END
