
 OpenBabel05151017193D

 24 24  0  0  0  0  0  0  0  0999 V2000
    1.7093    1.2228   -1.1700 O   0  0  0  0  0
    2.8257   -1.1053   -0.0527 O   0  0  0  0  0
    0.4274   -2.6670    0.0876 O   0  0  0  0  0
   -1.9655   -1.3000   -0.4810 O   0  0  0  0  0
    0.2590    1.4770    0.6406 O   0  0  0  0  0
   -3.3023    1.3561   -0.1362 O   0  0  0  0  0
    1.5016    0.9493    0.2096 C   0  0  0  0  0
    1.5940   -0.5642    0.4506 C   0  0  0  0  0
    0.4225   -1.2641   -0.2353 C   0  0  0  0  0
   -0.9050   -0.6541    0.2250 C   0  0  0  0  0
   -0.8926    0.8747    0.0155 C   0  0  0  0  0
   -2.1265    1.5521    0.6359 C   0  0  0  0  0
    1.7643    2.1929   -1.2283 H   0  0  0  0  0
    3.0224   -0.6045   -0.8704 H   0  0  0  0  0
    1.3535   -2.9567   -0.0385 H   0  0  0  0  0
   -1.7687   -2.2558   -0.4298 H   0  0  0  0  0
   -4.0570    1.5984    0.4192 H   0  0  0  0  0
    2.3046    1.4499    0.7610 H   0  0  0  0  0
    1.5613   -0.7788    1.5252 H   0  0  0  0  0
    0.5135   -1.2143   -1.3274 H   0  0  0  0  0
   -1.0475   -0.8823    1.2890 H   0  0  0  0  0
   -0.8850    1.1001   -1.0592 H   0  0  0  0  0
   -2.2972    1.1789    1.6525 H   0  0  0  0  0
   -1.9597    2.6321    0.7171 H   0  0  0  0  0
  7  1  1  0  0  0
  1 13  1  0  0  0
  8  2  1  0  0  0
  2 14  1  0  0  0
  9  3  1  0  0  0
  3 15  1  0  0  0
 10  4  1  0  0  0
  4 16  1  0  0  0
 11  5  1  0  0  0
  5  7  1  0  0  0
  6 12  1  0  0  0
  6 17  1  0  0  0
  7  8  1  0  0  0
  7 18  1  0  0  0
  8  9  1  0  0  0
  8 19  1  0  0  0
  9 10  1  0  0  0
  9 20  1  0  0  0
 10 11  1  0  0  0
 10 21  1  0  0  0
 11 12  1  0  0  0
 11 22  1  0  0  0
 12 23  1  0  0  0
 12 24  1  0  0  0
M  END
