Ethoxy ethane, ID: C60297
  NIST    04042217093D 1   1.00000     0.00000      
NIST Chemistry WebBook
 15 14  0     0  0              1 V2000
    0.9744    2.7710    2.3574 C   0  0  0  0  0  0           0  0  0
    0.9176    4.1589    1.7420 C   0  0  0  0  0  0           0  0  0
    1.8106    1.8731    1.6596 O   0  0  0  0  0  0           0  0  0
    3.2030    2.0811    1.8614 C   0  0  0  0  0  0           0  0  0
    3.9340    1.0107    1.0734 C   0  0  0  0  0  0           0  0  0
    0.0000    2.2572    2.2827 H   0  0  0  0  0  0           0  0  0
    1.2519    2.8230    3.4284 H   0  0  0  0  0  0           0  0  0
    0.1388    4.7597    2.2281 H   0  0  0  0  0  0           0  0  0
    0.6868    4.1218    0.6694 H   0  0  0  0  0  0           0  0  0
    1.8666    4.7007    1.8520 H   0  0  0  0  0  0           0  0  0
    3.4420    2.0182    2.9412 H   0  0  0  0  0  0           0  0  0
    3.4890    3.0953    1.5205 H   0  0  0  0  0  0           0  0  0
    5.0187    1.1245    1.1931 H   0  0  0  0  0  0           0  0  0
    3.7104    1.0671    0.0000 H   0  0  0  0  0  0           0  0  0
    3.6667    0.0000    1.4086 H   0  0  0  0  0  0           0  0  0
  1  2  1  0     0  0
  1  3  1  0     0  0
  1  6  1  0     0  0
  1  7  1  0     0  0
  2  8  1  0     0  0
  2  9  1  0     0  0
  2 10  1  0     0  0
  3  4  1  0     0  0
  4  5  1  0     0  0
  4 11  1  0     0  0
  4 12  1  0     0  0
  5 13  1  0     0  0
  5 14  1  0     0  0
  5 15  1  0     0  0
M  END
