1,1,2,2-TETRACHLOROETHANE.out
 OpenBabel05121020053D

  6  5  0  0  0  0  0  0  0  0999 V2000
   -2.6082   -3.8327   -1.8347 Cl  0  0  0  0  0
   -0.9377   -3.8327   -1.8347 C   0  0  0  0  0
   -0.2008   -2.3335   -1.8347 Cl  0  0  0  0  0
   -0.2272   -4.9737   -1.8347 C   0  0  0  0  0
    1.4433   -4.9738   -1.8347 Cl  0  0  0  0  0
   -0.9641   -6.4728   -1.8347 Cl  0  0  0  0  0
  1  2  1  0  0  0
  2  3  1  0  0  0
  2  4  2  0  0  0
  4  5  1  0  0  0
  4  6  1  0  0  0
M  END
