1,5-Hexadiene, ID: C592427
  NIST    04042217093D 1   1.00000     0.00000      
NIST Chemistry WebBook
 16 15  0     0  0              1 V2000
    2.1497    0.6782    3.3931 C   0  0  0  0  0  0           0  0  0
    1.2840    1.8615    3.6496 C   0  0  0  0  0  0           0  0  0
    0.6380    2.0560    4.7929 C   0  0  0  0  0  0           0  0  0
    3.5008    1.0814    2.8163 C   0  0  0  0  0  0           0  0  0
    3.3876    1.6107    1.4296 C   0  0  0  0  0  0           0  0  0
    4.0082    2.7103    1.0187 C   0  0  0  0  0  0           0  0  0
    1.6192    0.0000    2.6940 H   0  0  0  0  0  0           0  0  0
    2.3050    0.0930    4.3216 H   0  0  0  0  0  0           0  0  0
    1.2067    2.5781    2.8222 H   0  0  0  0  0  0           0  0  0
    0.0000    2.9174    4.9648 H   0  0  0  0  0  0           0  0  0
    0.6972    1.3723    5.6355 H   0  0  0  0  0  0           0  0  0
    4.1704    0.1979    2.7912 H   0  0  0  0  0  0           0  0  0
    3.9932    1.8154    3.4851 H   0  0  0  0  0  0           0  0  0
    2.7601    1.0273    0.7442 H   0  0  0  0  0  0           0  0  0
    3.9344    3.0781    0.0000 H   0  0  0  0  0  0           0  0  0
    4.6333    3.3192    1.6664 H   0  0  0  0  0  0           0  0  0
  1  2  1  0     0  0
  1  4  1  0     0  0
  1  7  1  0     0  0
  1  8  1  0     0  0
  2  3  2  0     0  0
  2  9  1  0     0  0
  3 10  1  0     0  0
  3 11  1  0     0  0
  4  5  1  0     0  0
  4 12  1  0     0  0
  4 13  1  0     0  0
  5  6  2  0     0  0
  5 14  1  0     0  0
  6 15  1  0     0  0
  6 16  1  0     0  0
M  END
