1-Butyne, ID: C107006
  NIST    04042217083D 1   1.00000     0.00000      
NIST Chemistry WebBook
 10  9  0     0  0              1 V2000
    2.2334    0.8107    0.8874 C   0  0  0  0  0  0           0  0  0
    1.0537    0.9766    0.8874 C   0  0  0  0  0  0           0  0  0
    3.6596    0.6098    0.8884 C   0  0  0  0  0  0           0  0  0
    4.4128    1.9252    0.8934 C   0  0  0  0  0  0           0  0  0
    0.0000    1.1233    0.8875 H   0  0  0  0  0  0           0  0  0
    3.9308    0.0000    1.7731 H   0  0  0  0  0  0           0  0  0
    3.9328    0.0058    0.0000 H   0  0  0  0  0  0           0  0  0
    5.4969    1.7544    0.8941 H   0  0  0  0  0  0           0  0  0
    4.1751    2.5330    0.0111 H   0  0  0  0  0  0           0  0  0
    4.1729    2.5273    1.7790 H   0  0  0  0  0  0           0  0  0
  1  2  3  0     0  0
  1  3  1  0     0  0
  2  5  1  0     0  0
  3  4  1  0     0  0
  3  6  1  0     0  0
  3  7  1  0     0  0
  4  8  1  0     0  0
  4  9  1  0     0  0
  4 10  1  0     0  0
M  END
