Naphthalene, 1-methyl-, ID: C90120
  NIST    04042217093D 1   1.00000     0.00000      
NIST Chemistry WebBook
 21 22  0     0  0              1 V2000
    2.0690    1.2169    3.7075 C   0  0  0  0  0  0           0  0  0
    0.6494    0.8447    3.4674 C   0  0  0  0  0  0           0  0  0
    2.7477    2.1158    2.8272 C   0  0  0  0  0  0           0  0  0
    2.7367    0.6907    4.7878 C   0  0  0  0  0  0           0  0  0
    4.0956    2.4447    3.0896 C   0  0  0  0  0  0           0  0  0
    2.1159    2.6950    1.6923 C   0  0  0  0  0  0           0  0  0
    4.0851    1.0240    5.0438 C   0  0  0  0  0  0           0  0  0
    4.7542    1.8818    4.2157 C   0  0  0  0  0  0           0  0  0
    4.7836    3.3371    2.2233 C   0  0  0  0  0  0           0  0  0
    2.7989    3.5519    0.8723 C   0  0  0  0  0  0           0  0  0
    4.1481    3.8777    1.1393 C   0  0  0  0  0  0           0  0  0
    0.0000    1.7310    3.4874 H   0  0  0  0  0  0           0  0  0
    0.5269    0.3622    2.4876 H   0  0  0  0  0  0           0  0  0
    0.2720    0.1453    4.2259 H   0  0  0  0  0  0           0  0  0
    2.2273    0.0000    5.4702 H   0  0  0  0  0  0           0  0  0
    1.0696    2.4477    1.4780 H   0  0  0  0  0  0           0  0  0
    4.5835    0.5848    5.9141 H   0  0  0  0  0  0           0  0  0
    5.8003    2.1468    4.4058 H   0  0  0  0  0  0           0  0  0
    5.8294    3.5825    2.4404 H   0  0  0  0  0  0           0  0  0
    2.3070    3.9946    0.0000 H   0  0  0  0  0  0           0  0  0
    4.6743    4.5651    0.4692 H   0  0  0  0  0  0           0  0  0
  1  2  1  0     0  0
  1  3  2  0     0  0
  4  1  1  0     0  0
  2 12  1  0     0  0
  2 13  1  0     0  0
  2 14  1  0     0  0
  5  3  1  0     0  0
  3  6  1  0     0  0
  7  4  2  0     0  0
  4 15  1  0     0  0
  5  8  2  0     0  0
  9  5  1  0     0  0
  6 10  2  0     0  0
  6 16  1  0     0  0
  8  7  1  0     0  0
  7 17  1  0     0  0
  8 18  1  0     0  0
 11  9  2  0     0  0
  9 19  1  0     0  0
 10 11  1  0     0  0
 10 20  1  0     0  0
 11 21  1  0     0  0
M  END
