Hexane, 2,4-dimethyl-, ID: C589435
  NIST    04042217093D 1   1.00000     0.00000      
NIST Chemistry WebBook
 26 25  0     0  0              1 V2000
    4.5583    2.7747    2.2818 C   0  0  0  0  0  0           0  0  0
    3.3729    1.9626    1.7514 C   0  0  0  0  0  0           0  0  0
    2.0954    2.8086    1.7795 C   0  0  0  0  0  0           0  0  0
    3.1605    0.6868    2.5517 C   0  0  0  0  0  0           0  0  0
    5.9117    2.3086    1.7351 C   0  0  0  0  0  0           0  0  0
    0.9496    2.1075    1.0829 C   0  0  0  0  0  0           0  0  0
    6.4468    1.1091    2.5000 C   0  0  0  0  0  0           0  0  0
    6.9203    3.4465    1.7960 C   0  0  0  0  0  0           0  0  0
    4.4140    3.8407    2.0065 H   0  0  0  0  0  0           0  0  0
    4.5700    2.7573    3.3902 H   0  0  0  0  0  0           0  0  0
    3.5775    1.6838    0.6873 H   0  0  0  0  0  0           0  0  0
    1.8231    3.0346    2.8297 H   0  0  0  0  0  0           0  0  0
    2.2806    3.7908    1.3006 H   0  0  0  0  0  0           0  0  0
    3.0322    0.8928    3.6229 H   0  0  0  0  0  0           0  0  0
    2.2525    0.1653    2.2061 H   0  0  0  0  0  0           0  0  0
    4.0150    0.0000    2.4482 H   0  0  0  0  0  0           0  0  0
    5.7807    2.0143    0.6640 H   0  0  0  0  0  0           0  0  0
    0.8353    1.0782    1.4634 H   0  0  0  0  0  0           0  0  0
    0.0000    2.6329    1.2389 H   0  0  0  0  0  0           0  0  0
    1.1147    2.0364    0.0000 H   0  0  0  0  0  0           0  0  0
    7.3897    0.7487    2.0690 H   0  0  0  0  0  0           0  0  0
    6.6380    1.3524    3.5538 H   0  0  0  0  0  0           0  0  0
    5.7295    0.2722    2.4809 H   0  0  0  0  0  0           0  0  0
    7.0550    3.8114    2.8231 H   0  0  0  0  0  0           0  0  0
    7.9043    3.1257    1.4299 H   0  0  0  0  0  0           0  0  0
    6.6046    4.3007    1.1823 H   0  0  0  0  0  0           0  0  0
  1  2  1  0     0  0
  1  5  1  0     0  0
  1  9  1  0     0  0
  1 10  1  0     0  0
  2  3  1  0     0  0
  2  4  1  0     0  0
  2 11  1  0     0  0
  3  6  1  0     0  0
  3 12  1  0     0  0
  3 13  1  0     0  0
  4 14  1  0     0  0
  4 15  1  0     0  0
  4 16  1  0     0  0
  5  7  1  0     0  0
  5  8  1  0     0  0
  5 17  1  0     0  0
  6 18  1  0     0  0
  6 19  1  0     0  0
  6 20  1  0     0  0
  7 21  1  0     0  0
  7 22  1  0     0  0
  7 23  1  0     0  0
  8 24  1  0     0  0
  8 25  1  0     0  0
  8 26  1  0     0  0
M  END
