Propane, 2-chloro-, ID: C75296
  NIST    04042217093D 1   1.00000     0.00000      
NIST Chemistry WebBook
 11 10  0     0  0              1 V2000
    0.6871    1.2954    1.7803 C   0  0  0  0  0  0           0  0  0
    2.0728    1.8640    1.5992 C   0  0  0  0  0  0           0  0  0
    3.0299    0.8794    0.9741 C   0  0  0  0  0  0           0  0  0
    1.9474    3.2815    0.5032 Cl  0  0  0  0  0  0           0  0  0
    0.0000    2.0446    2.1939 H   0  0  0  0  0  0           0  0  0
    0.2639    0.9497    0.8277 H   0  0  0  0  0  0           0  0  0
    0.7004    0.4390    2.4669 H   0  0  0  0  0  0           0  0  0
    2.4730    2.2422    2.5673 H   0  0  0  0  0  0           0  0  0
    2.6671    0.5250    0.0000 H   0  0  0  0  0  0           0  0  0
    4.0175    1.3308    0.8139 H   0  0  0  0  0  0           0  0  0
    3.1649    0.0000    1.6173 H   0  0  0  0  0  0           0  0  0
  1  2  1  0     0  0
  1  5  1  0     0  0
  1  6  1  0     0  0
  1  7  1  0     0  0
  2  3  1  0     0  0
  2  4  1  0     0  0
  2  8  1  0     0  0
  3  9  1  0     0  0
  3 10  1  0     0  0
  3 11  1  0     0  0
M  END
