1,3-Butadiene, 2-methyl-, ID: C78795
  NIST    04042217093D 1   1.00000     0.00000      
NIST Chemistry WebBook
 13 12  0     0  0              1 V2000
    1.8461    2.1459    1.0538 C   0  0  0  0  0  0           0  0  0
    3.2546    2.1159    1.4485 C   0  0  0  0  0  0           0  0  0
    4.0054    0.8839    1.0874 C   0  0  0  0  0  0           0  0  0
    3.8310    3.1344    2.0943 C   0  0  0  0  0  0           0  0  0
    1.0444    3.1790    1.3048 C   0  0  0  0  0  0           0  0  0
    1.4747    1.2565    0.5296 H   0  0  0  0  0  0           0  0  0
    3.9965    0.7286    0.0000 H   0  0  0  0  0  0           0  0  0
    3.5474    0.0000    1.5516 H   0  0  0  0  0  0           0  0  0
    5.0541    0.9239    1.4096 H   0  0  0  0  0  0           0  0  0
    4.8729    3.1362    2.3977 H   0  0  0  0  0  0           0  0  0
    3.2687    4.0322    2.3531 H   0  0  0  0  0  0           0  0  0
    1.4005    4.0690    1.8248 H   0  0  0  0  0  0           0  0  0
    0.0000    3.2037    1.0132 H   0  0  0  0  0  0           0  0  0
  1  2  1  0     0  0
  1  5  2  0     0  0
  1  6  1  0     0  0
  2  3  1  0     0  0
  2  4  2  0     0  0
  3  7  1  0     0  0
  3  8  1  0     0  0
  3  9  1  0     0  0
  4 10  1  0     0  0
  4 11  1  0     0  0
  5 12  1  0     0  0
  5 13  1  0     0  0
M  END
