Hexane, 3-methyl-, ID: C589344
  NIST    04042217093D 1   1.00000     0.00000      
NIST Chemistry WebBook
 23 22  0     0  0              1 V2000
    3.2686    3.3958    1.1888 C   0  0  0  0  0  0           0  0  0
    4.0572    2.1702    1.6585 C   0  0  0  0  0  0           0  0  0
    1.8505    3.3937    1.7394 C   0  0  0  0  0  0           0  0  0
    5.5272    2.3078    1.2582 C   0  0  0  0  0  0           0  0  0
    3.4431    0.9020    1.0852 C   0  0  0  0  0  0           0  0  0
    6.4188    1.3203    1.9775 C   0  0  0  0  0  0           0  0  0
    1.0185    4.5059    1.1446 C   0  0  0  0  0  0           0  0  0
    3.7876    4.3244    1.5006 H   0  0  0  0  0  0           0  0  0
    3.2468    3.4233    0.0806 H   0  0  0  0  0  0           0  0  0
    3.9976    2.1222    2.7743 H   0  0  0  0  0  0           0  0  0
    1.3844    2.4029    1.5338 H   0  0  0  0  0  0           0  0  0
    1.8744    3.4851    2.8433 H   0  0  0  0  0  0           0  0  0
    5.6310    2.1853    0.1614 H   0  0  0  0  0  0           0  0  0
    5.8747    3.3380    1.4759 H   0  0  0  0  0  0           0  0  0
    3.5952    0.8296    0.0000 H   0  0  0  0  0  0           0  0  0
    3.8713    0.0000    1.5404 H   0  0  0  0  0  0           0  0  0
    2.3548    0.8892    1.2661 H   0  0  0  0  0  0           0  0  0
    7.4689    1.4502    1.6859 H   0  0  0  0  0  0           0  0  0
    6.3635    1.4426    3.0676 H   0  0  0  0  0  0           0  0  0
    6.1435    0.2808    1.7524 H   0  0  0  0  0  0           0  0  0
    0.9347    4.4114    0.0537 H   0  0  0  0  0  0           0  0  0
    0.0000    4.5034    1.5531 H   0  0  0  0  0  0           0  0  0
    1.4542    5.4919    1.3534 H   0  0  0  0  0  0           0  0  0
  1  2  1  0     0  0
  1  3  1  0     0  0
  1  8  1  0     0  0
  1  9  1  0     0  0
  2  4  1  0     0  0
  2  5  1  0     0  0
  2 10  1  0     0  0
  3  7  1  0     0  0
  3 11  1  0     0  0
  3 12  1  0     0  0
  4  6  1  0     0  0
  4 13  1  0     0  0
  4 14  1  0     0  0
  5 15  1  0     0  0
  5 16  1  0     0  0
  5 17  1  0     0  0
  6 18  1  0     0  0
  6 19  1  0     0  0
  6 20  1  0     0  0
  7 21  1  0     0  0
  7 22  1  0     0  0
  7 23  1  0     0  0
M  END
