ACETIC_ACID.gout
 OpenBabel05121022263D GAMESS optimized

  8  7  0  0  0  0  0  0  0  0999 V2000
    0.7724    0.9670    1.0069 C   0  0  0  0  0
    2.0576    1.7541    0.9321 C   0  0  0  0  0
    3.0833    0.9883    0.4751 O   0  0  0  0  0
    2.1974    2.9214    1.2200 O   0  0  0  0  0
    0.0114    1.5612    1.5141 H   0  0  0  0  0
    0.4326    0.7231   -0.0064 H   0  0  0  0  0
    0.9331    0.0221    1.5356 H   0  0  0  0  0
    3.8606    1.5761    0.4447 H   0  0  0  0  0
  6  1  1  0  0  0
  2  1  1  0  0  0
  1  5  1  0  0  0
  1  7  1  0  0  0
  3  2  1  0  0  0
  2  4  2  0  0  0
  8  3  1  0  0  0
M  END
