
 OpenBabel10231019543D

 14 14  0  0  0  0  0  0  0  0999 V2000
   -0.3161    1.2017   -0.0000 C   0  0  0  0  0
   -1.0280   -0.0000   -0.0000 C   0  0  0  0  0
    1.0818    1.2046   -0.0000 C   0  0  0  0  0
    1.7814   -0.0000    0.0000 C   0  0  0  0  0
    1.0818   -1.2046    0.0000 C   0  0  0  0  0
   -0.3161   -1.2017    0.0000 C   0  0  0  0  0
   -2.4100   -0.0000   -0.0000 N   0  0  0  0  0
   -0.8450    2.1502   -0.0000 H   0  0  0  0  0
    1.6213    2.1474   -0.0000 H   0  0  0  0  0
    2.8674   -0.0000   -0.0000 H   0  0  0  0  0
    1.6213   -2.1474    0.0000 H   0  0  0  0  0
   -0.8450   -2.1502    0.0000 H   0  0  0  0  0
   -2.9244    0.8692   -0.0000 H   0  0  0  0  0
   -2.9244   -0.8692    0.0000 H   0  0  0  0  0
  1  2  2  0  0  0
  3  1  1  0  0  0
  1  8  1  0  0  0
  2  6  1  0  0  0
  2  7  1  0  0  0
  4  3  2  0  0  0
  3  9  1  0  0  0
  5  4  1  0  0  0
  4 10  1  0  0  0
  6  5  2  0  0  0
  5 11  1  0  0  0
  6 12  1  0  0  0
  7 13  1  0  0  0
  7 14  1  0  0  0
M  END
