
 OpenBabel07231023173D

236235  0  0  0  0  0  0  0  0999 V2000
   -2.1094    1.5865    0.0653 C   0  0  0  0  0
   -0.8989    0.5537    0.2942 C   0  0  0  0  0
    0.5078    1.1780    0.6863 C   0  0  0  0  0
    1.7750    0.2161    0.8239 C   0  0  0  0  0
    3.0904    1.0083    1.1967 C   0  0  0  0  0
    4.5748    0.3620    1.0962 C   0  0  0  0  0
    5.5631    1.5848    0.8653 C   0  0  0  0  0
    4.9266   -0.5665    2.3314 C   0  0  0  0  0
   -3.5219    0.9190   -0.1832 C   0  0  0  0  0
   -1.8295    2.5055   -1.1822 C   0  0  0  0  0
    7.0727    1.3635    0.5823 C   0  0  0  0  0
    7.7697    2.6160   -0.0320 C   0  0  0  0  0
    9.3180    2.5204   -0.0523 C   0  0  0  0  0
   10.0154    3.7403   -0.7125 C   0  0  0  0  0
   11.5612    3.6593   -0.6450 C   0  0  0  0  0
   12.2904    4.8430   -1.3301 C   0  0  0  0  0
   13.8300    4.7164   -1.2374 C   0  0  0  0  0
   14.6033    5.8721   -1.9143 C   0  0  0  0  0
   16.1335    5.6803   -1.8142 C   0  0  0  0  0
   16.9484    6.8156   -2.4684 C   0  0  0  0  0
   18.4673    6.5681   -2.3619 C   0  0  0  0  0
   19.3105    7.6881   -2.9982 C   0  0  0  0  0
   20.8196    7.4067   -2.8837 C   0  0  0  0  0
   21.6740    8.5171   -3.5141 C   0  0  0  0  0
   23.1764    8.2230   -3.3922 C   0  0  0  0  0
   24.0271    9.3293   -4.0243 C   0  0  0  0  0
   25.5173    9.0414   -3.9011 C   0  0  0  0  0
    6.3704   -1.1705    2.4225 C   0  0  0  0  0
    6.6021   -2.2984    3.4854 C   0  0  0  0  0
    8.1124   -2.6793    3.6659 C   0  0  0  0  0
    8.4046   -3.8522    4.6568 C   0  0  0  0  0
    9.9277   -4.1226    4.8767 C   0  0  0  0  0
   10.2636   -5.3364    5.7983 C   0  0  0  0  0
   11.7926   -5.5368    6.0198 C   0  0  0  0  0
   12.1777   -6.7620    6.8991 C   0  0  0  0  0
   13.7129   -6.9061    7.0879 C   0  0  0  0  0
   14.1523   -8.1226    7.9444 C   0  0  0  0  0
   15.6920   -8.2142    8.0867 C   0  0  0  0  0
   16.1813   -9.4154    8.9273 C   0  0  0  0  0
   17.7215   -9.4605    9.0293 C   0  0  0  0  0
   18.2446  -10.6505    9.8549 C   0  0  0  0  0
   19.7818  -10.6631    9.9334 C   0  0  0  0  0
   20.3142  -11.8492   10.7467 C   0  0  0  0  0
   21.8365  -11.8533   10.8212 C   0  0  0  0  0
   -2.5217    3.8993   -1.2107 C   0  0  0  0  0
   -3.7568    4.0771   -2.1360 C   0  0  0  0  0
   -3.8420    5.5194   -2.7064 C   0  0  0  0  0
   -5.1678    5.8753   -3.4201 C   0  0  0  0  0
   -5.0757    7.2288   -4.1701 C   0  0  0  0  0
   -6.4258    7.7383   -4.7205 C   0  0  0  0  0
   -6.2779    9.0326   -5.5556 C   0  0  0  0  0
   -7.6342    9.6057   -6.0139 C   0  0  0  0  0
   -7.4994   10.8696   -6.8910 C   0  0  0  0  0
   -8.8758   11.4310   -7.2935 C   0  0  0  0  0
   -8.7987   12.6793   -8.1932 C   0  0  0  0  0
  -10.2065   13.1848   -8.5524 C   0  0  0  0  0
  -10.2048   14.4222   -9.4637 C   0  0  0  0  0
  -11.6415   14.8618   -9.7858 C   0  0  0  0  0
  -11.7024   16.0894  -10.7021 C   0  0  0  0  0
  -13.1545   16.4815  -10.9979 C   0  0  0  0  0
  -13.2493   17.6952  -11.9102 C   0  0  0  0  0
   -4.3673    0.3594    1.0000 C   0  0  0  0  0
   -5.8864    0.2614    0.6105 C   0  0  0  0  0
   -6.8221   -0.5029    1.5917 C   0  0  0  0  0
   -8.3324   -0.3910    1.2059 C   0  0  0  0  0
   -9.2898   -1.2916    2.0379 C   0  0  0  0  0
  -10.7952   -1.0881    1.6968 C   0  0  0  0  0
  -11.7470   -2.0528    2.4551 C   0  0  0  0  0
  -13.2503   -1.8128    2.1533 C   0  0  0  0  0
  -14.1882   -2.8053    2.8854 C   0  0  0  0  0
  -15.6891   -2.5513    2.6080 C   0  0  0  0  0
  -16.6135   -3.5548    3.3338 C   0  0  0  0  0
  -18.1107   -3.2917    3.0701 C   0  0  0  0  0
  -19.0256   -4.2984    3.7944 C   0  0  0  0  0
  -20.5174   -4.0241    3.5373 C   0  0  0  0  0
  -21.4276   -5.0299    4.2595 C   0  0  0  0  0
  -22.9116   -4.7430    4.0026 C   0  0  0  0  0
  -23.8186   -5.7374    4.7155 C   0  0  0  0  0
   -2.1748    2.2172    0.9602 H   0  0  0  0  0
   -0.7733   -0.0385   -0.6201 H   0  0  0  0  0
   -1.1923   -0.1394    1.0915 H   0  0  0  0  0
    0.3830    1.7126    1.6357 H   0  0  0  0  0
    0.7748    1.9293   -0.0633 H   0  0  0  0  0
    1.9261   -0.2982   -0.1314 H   0  0  0  0  0
    1.5755   -0.5402    1.5901 H   0  0  0  0  0
    2.9686    1.4050    2.2129 H   0  0  0  0  0
    3.0857    1.8837    0.5338 H   0  0  0  0  0
    4.6055   -0.2564    0.1901 H   0  0  0  0  0
    5.4762    2.2605    1.7260 H   0  0  0  0  0
    5.1735    2.1409    0.0015 H   0  0  0  0  0
    4.2101   -1.3971    2.3311 H   0  0  0  0  0
    4.7452    0.0012    3.2524 H   0  0  0  0  0
   -3.4047    0.1211   -0.9280 H   0  0  0  0  0
   -4.1542    1.6774   -0.6604 H   0  0  0  0  0
   -2.0503    1.9559   -2.1059 H   0  0  0  0  0
   -0.7565    2.7139   -1.2199 H   0  0  0  0  0
    7.5887    1.1470    1.5192 H   0  0  0  0  0
    7.2092    0.5103   -0.0906 H   0  0  0  0  0
    7.4825    3.5052    0.5421 H   0  0  0  0  0
    7.4025    2.7596   -1.0552 H   0  0  0  0  0
    9.6163    1.6091   -0.5839 H   0  0  0  0  0
    9.6782    2.4238    0.9793 H   0  0  0  0  0
    9.6839    4.6604   -0.2167 H   0  0  0  0  0
    9.7035    3.8069   -1.7615 H   0  0  0  0  0
   11.8902    2.7234   -1.1124 H   0  0  0  0  0
   11.8683    3.6176    0.4072 H   0  0  0  0  0
   11.9764    5.7841   -0.8635 H   0  0  0  0  0
   11.9956    4.8891   -2.3852 H   0  0  0  0  0
   14.1371    3.7690   -1.6968 H   0  0  0  0  0
   14.1206    4.6688   -0.1808 H   0  0  0  0  0
   14.3253    6.8227   -1.4438 H   0  0  0  0  0
   14.3157    5.9354   -2.9704 H   0  0  0  0  0
   16.4058    4.7293   -2.2882 H   0  0  0  0  0
   16.4170    5.6041   -0.7574 H   0  0  0  0  0
   16.7014    7.7684   -1.9853 H   0  0  0  0  0
   16.6697    6.9050   -3.5251 H   0  0  0  0  0
   18.7123    5.6161   -2.8485 H   0  0  0  0  0
   18.7441    6.4690   -1.3052 H   0  0  0  0  0
   19.0817    8.6420   -2.5081 H   0  0  0  0  0
   19.0411    7.7939   -4.0559 H   0  0  0  0  0
   21.0503    6.4529   -3.3737 H   0  0  0  0  0
   21.0911    7.2994   -1.8265 H   0  0  0  0  0
   21.4511    9.4732   -3.0254 H   0  0  0  0  0
   21.4107    8.6257   -4.5731 H   0  0  0  0  0
   23.4045    7.2671   -3.8792 H   0  0  0  0  0
   23.4454    8.1181   -2.3340 H   0  0  0  0  0
   23.8095   10.2890   -3.5412 H   0  0  0  0  0
   23.7721    9.4351   -5.0851 H   0  0  0  0  0
   25.8192    8.9660   -2.8516 H   0  0  0  0  0
   26.0991    9.8466   -4.3621 H   0  0  0  0  0
   25.7812    8.1051   -4.4032 H   0  0  0  0  0
    6.6640   -1.5543    1.4390 H   0  0  0  0  0
    7.0571   -0.3664    2.6924 H   0  0  0  0  0
    6.0379   -3.1896    3.1886 H   0  0  0  0  0
    6.2078   -1.9657    4.4525 H   0  0  0  0  0
    8.6536   -1.7904    4.0128 H   0  0  0  0  0
    8.5287   -2.9431    2.6861 H   0  0  0  0  0
    7.9326   -4.7647    4.2745 H   0  0  0  0  0
    7.9435   -3.6279    5.6257 H   0  0  0  0  0
   10.3834   -3.2224    5.3067 H   0  0  0  0  0
   10.4020   -4.2866    3.9016 H   0  0  0  0  0
    9.8457   -6.2480    5.3552 H   0  0  0  0  0
    9.7791   -5.1961    6.7717 H   0  0  0  0  0
   12.2020   -4.6318    6.4850 H   0  0  0  0  0
   12.2801   -5.6431    5.0432 H   0  0  0  0  0
   11.7871   -7.6762    6.4368 H   0  0  0  0  0
   11.7036   -6.6667    7.8831 H   0  0  0  0  0
   14.0997   -5.9921    7.5549 H   0  0  0  0  0
   14.1850   -6.9855    6.1011 H   0  0  0  0  0
   13.7785   -9.0458    7.4861 H   0  0  0  0  0
   13.7027   -8.0490    8.9417 H   0  0  0  0  0
   16.0642   -7.2896    8.5443 H   0  0  0  0  0
   16.1394   -8.2793    7.0873 H   0  0  0  0  0
   15.8225  -10.3486    8.4772 H   0  0  0  0  0
   15.7548   -9.3558    9.9357 H   0  0  0  0  0
   18.0811   -8.5283    9.4818 H   0  0  0  0  0
   18.1488   -9.5132    8.0205 H   0  0  0  0  0
   17.8983  -11.5893    9.4065 H   0  0  0  0  0
   17.8317  -10.6041   10.8697 H   0  0  0  0  0
   20.1328   -9.7285   10.3877 H   0  0  0  0  0
   20.1999  -10.7052    8.9203 H   0  0  0  0  0
   19.9797  -12.7908   10.2961 H   0  0  0  0  0
   19.9103  -11.8152   11.7651 H   0  0  0  0  0
   22.2814  -11.9221    9.8232 H   0  0  0  0  0
   22.1872  -12.7113   11.4050 H   0  0  0  0  0
   22.2115  -10.9442   11.3025 H   0  0  0  0  0
   -1.7567    4.6089   -1.5543 H   0  0  0  0  0
   -2.7838    4.2146   -0.1940 H   0  0  0  0  0
   -4.6665    3.8527   -1.5673 H   0  0  0  0  0
   -3.7133    3.3721   -2.9737 H   0  0  0  0  0
   -3.0131    5.6546   -3.4127 H   0  0  0  0  0
   -3.6866    6.2390   -1.8931 H   0  0  0  0  0
   -5.9717    5.9224   -2.6759 H   0  0  0  0  0
   -5.4311    5.0871   -4.1348 H   0  0  0  0  0
   -4.3679    7.1213   -5.0013 H   0  0  0  0  0
   -4.6637    7.9894   -3.4959 H   0  0  0  0  0
   -7.1055    7.9265   -3.8807 H   0  0  0  0  0
   -6.8865    6.9614   -5.3420 H   0  0  0  0  0
   -5.6584    8.8229   -6.4360 H   0  0  0  0  0
   -5.7516    9.7910   -4.9638 H   0  0  0  0  0
   -8.2372    9.8469   -5.1301 H   0  0  0  0  0
   -8.1802    8.8384   -6.5759 H   0  0  0  0  0
   -6.9261   10.6284   -7.7940 H   0  0  0  0  0
   -6.9391   11.6384   -6.3458 H   0  0  0  0  0
   -9.4392   11.6811   -6.3861 H   0  0  0  0  0
   -9.4422   10.6509   -7.8167 H   0  0  0  0  0
   -8.2501   12.4395   -9.1117 H   0  0  0  0  0
   -8.2441   13.4733   -7.6793 H   0  0  0  0  0
  -10.7485   13.4236   -7.6290 H   0  0  0  0  0
  -10.7610   12.3788   -9.0488 H   0  0  0  0  0
   -9.6726   14.1960  -10.3953 H   0  0  0  0  0
   -9.6701   15.2442   -8.9732 H   0  0  0  0  0
  -12.1699   15.0854   -8.8508 H   0  0  0  0  0
  -12.1751   14.0311  -10.2641 H   0  0  0  0  0
  -11.1819   15.8752  -11.6432 H   0  0  0  0  0
  -11.1843   16.9316  -10.2282 H   0  0  0  0  0
  -13.6784   16.7006  -10.0599 H   0  0  0  0  0
  -13.6772   15.6413  -11.4700 H   0  0  0  0  0
  -12.7718   18.5688  -11.4555 H   0  0  0  0  0
  -14.2989   17.9445  -12.0992 H   0  0  0  0  0
  -12.7699   17.5017  -12.8749 H   0  0  0  0  0
   -4.2710    1.0168    1.8711 H   0  0  0  0  0
   -3.9908   -0.6298    1.2809 H   0  0  0  0  0
   -5.9668   -0.2175   -0.3735 H   0  0  0  0  0
   -6.2704    1.2832    0.4938 H   0  0  0  0  0
   -6.6868   -0.1126    2.6068 H   0  0  0  0  0
   -6.5324   -1.5598    1.6049 H   0  0  0  0  0
   -8.4510   -0.6472    0.1459 H   0  0  0  0  0
   -8.6444    0.6546    1.3178 H   0  0  0  0  0
   -9.1397   -1.0900    3.1051 H   0  0  0  0  0
   -9.0257   -2.3415    1.8658 H   0  0  0  0  0
  -10.9421   -1.2249    0.6183 H   0  0  0  0  0
  -11.0761   -0.0545    1.9310 H   0  0  0  0  0
  -11.5823   -1.9463    3.5343 H   0  0  0  0  0
  -11.4926   -3.0857    2.1902 H   0  0  0  0  0
  -13.4199   -1.8958    1.0726 H   0  0  0  0  0
  -13.5164   -0.7899    2.4439 H   0  0  0  0  0
  -14.0111   -2.7380    3.9661 H   0  0  0  0  0
  -13.9378   -3.8280    2.5809 H   0  0  0  0  0
  -15.8738   -2.6130    1.5281 H   0  0  0  0  0
  -15.9484   -1.5338    2.9221 H   0  0  0  0  0
  -16.4272   -3.5028    4.4140 H   0  0  0  0  0
  -16.3665   -4.5732    3.0128 H   0  0  0  0  0
  -18.3046   -3.3434    1.9911 H   0  0  0  0  0
  -18.3648   -2.2764    3.3952 H   0  0  0  0  0
  -18.8333   -4.2544    4.8740 H   0  0  0  0  0
  -18.7836   -5.3152    3.4646 H   0  0  0  0  0
  -20.7165   -4.0684    2.4590 H   0  0  0  0  0
  -20.7655   -3.0095    3.8697 H   0  0  0  0  0
  -21.2333   -4.9920    5.3388 H   0  0  0  0  0
  -21.1913   -6.0467    3.9246 H   0  0  0  0  0
  -23.1179   -4.7839    2.9264 H   0  0  0  0  0
  -23.1598   -3.7308    4.3416 H   0  0  0  0  0
  -23.6288   -6.7602    4.3750 H   0  0  0  0  0
  -24.8699   -5.5052    4.5136 H   0  0  0  0  0
  -23.6688   -5.7019    5.7995 H   0  0  0  0  0
  1  2  1  0  0  0
  1  9  1  0  0  0
  1 10  1  0  0  0
  1 79  1  0  0  0
  2  3  1  0  0  0
  2 80  1  0  0  0
  2 81  1  0  0  0
  3  4  1  0  0  0
  3 82  1  0  0  0
  3 83  1  0  0  0
  4  5  1  0  0  0
  4 84  1  0  0  0
  4 85  1  0  0  0
  5  6  1  0  0  0
  5 86  1  0  0  0
  5 87  1  0  0  0
  6  7  1  0  0  0
  6  8  1  0  0  0
  6 88  1  0  0  0
 11  7  1  0  0  0
  7 89  1  0  0  0
  7 90  1  0  0  0
 28  8  1  0  0  0
  8 91  1  0  0  0
  8 92  1  0  0  0
  9 62  1  0  0  0
  9 93  1  0  0  0
  9 94  1  0  0  0
 10 45  1  0  0  0
 10 95  1  0  0  0
 10 96  1  0  0  0
 11 12  1  0  0  0
 11 97  1  0  0  0
 11 98  1  0  0  0
 12 13  1  0  0  0
 12 99  1  0  0  0
 12100  1  0  0  0
 13 14  1  0  0  0
 13101  1  0  0  0
 13102  1  0  0  0
 14 15  1  0  0  0
 14103  1  0  0  0
 14104  1  0  0  0
 15 16  1  0  0  0
 15105  1  0  0  0
 15106  1  0  0  0
 16 17  1  0  0  0
 16107  1  0  0  0
 16108  1  0  0  0
 17 18  1  0  0  0
 17109  1  0  0  0
 17110  1  0  0  0
 18 19  1  0  0  0
 18111  1  0  0  0
 18112  1  0  0  0
 19 20  1  0  0  0
 19113  1  0  0  0
 19114  1  0  0  0
 20 21  1  0  0  0
 20115  1  0  0  0
 20116  1  0  0  0
 21 22  1  0  0  0
 21117  1  0  0  0
 21118  1  0  0  0
 22 23  1  0  0  0
 22119  1  0  0  0
 22120  1  0  0  0
 23 24  1  0  0  0
 23121  1  0  0  0
 23122  1  0  0  0
 24 25  1  0  0  0
 24123  1  0  0  0
 24124  1  0  0  0
 25 26  1  0  0  0
 25125  1  0  0  0
 25126  1  0  0  0
 26 27  1  0  0  0
 26127  1  0  0  0
 26128  1  0  0  0
 27129  1  0  0  0
 27130  1  0  0  0
 27131  1  0  0  0
 28 29  1  0  0  0
 28132  1  0  0  0
 28133  1  0  0  0
 29 30  1  0  0  0
 29134  1  0  0  0
 29135  1  0  0  0
 30 31  1  0  0  0
 30136  1  0  0  0
 30137  1  0  0  0
 31 32  1  0  0  0
 31138  1  0  0  0
 31139  1  0  0  0
 32 33  1  0  0  0
 32140  1  0  0  0
 32141  1  0  0  0
 33 34  1  0  0  0
 33142  1  0  0  0
 33143  1  0  0  0
 34 35  1  0  0  0
 34144  1  0  0  0
 34145  1  0  0  0
 35 36  1  0  0  0
 35146  1  0  0  0
 35147  1  0  0  0
 36 37  1  0  0  0
 36148  1  0  0  0
 36149  1  0  0  0
 37 38  1  0  0  0
 37150  1  0  0  0
 37151  1  0  0  0
 38 39  1  0  0  0
 38152  1  0  0  0
 38153  1  0  0  0
 39 40  1  0  0  0
 39154  1  0  0  0
 39155  1  0  0  0
 40 41  1  0  0  0
 40156  1  0  0  0
 40157  1  0  0  0
 41 42  1  0  0  0
 41158  1  0  0  0
 41159  1  0  0  0
 42 43  1  0  0  0
 42160  1  0  0  0
 42161  1  0  0  0
 43 44  1  0  0  0
 43162  1  0  0  0
 43163  1  0  0  0
 44164  1  0  0  0
 44165  1  0  0  0
 44166  1  0  0  0
 45 46  1  0  0  0
 45167  1  0  0  0
 45168  1  0  0  0
 46 47  1  0  0  0
 46169  1  0  0  0
 46170  1  0  0  0
 47 48  1  0  0  0
 47171  1  0  0  0
 47172  1  0  0  0
 48 49  1  0  0  0
 48173  1  0  0  0
 48174  1  0  0  0
 49 50  1  0  0  0
 49175  1  0  0  0
 49176  1  0  0  0
 50 51  1  0  0  0
 50177  1  0  0  0
 50178  1  0  0  0
 51 52  1  0  0  0
 51179  1  0  0  0
 51180  1  0  0  0
 52 53  1  0  0  0
 52181  1  0  0  0
 52182  1  0  0  0
 53 54  1  0  0  0
 53183  1  0  0  0
 53184  1  0  0  0
 54 55  1  0  0  0
 54185  1  0  0  0
 54186  1  0  0  0
 55 56  1  0  0  0
 55187  1  0  0  0
 55188  1  0  0  0
 56 57  1  0  0  0
 56189  1  0  0  0
 56190  1  0  0  0
 57 58  1  0  0  0
 57191  1  0  0  0
 57192  1  0  0  0
 58 59  1  0  0  0
 58193  1  0  0  0
 58194  1  0  0  0
 59 60  1  0  0  0
 59195  1  0  0  0
 59196  1  0  0  0
 60 61  1  0  0  0
 60197  1  0  0  0
 60198  1  0  0  0
 61199  1  0  0  0
 61200  1  0  0  0
 61201  1  0  0  0
 62 63  1  0  0  0
 62202  1  0  0  0
 62203  1  0  0  0
 63 64  1  0  0  0
 63204  1  0  0  0
 63205  1  0  0  0
 64 65  1  0  0  0
 64206  1  0  0  0
 64207  1  0  0  0
 65 66  1  0  0  0
 65208  1  0  0  0
 65209  1  0  0  0
 66 67  1  0  0  0
 66210  1  0  0  0
 66211  1  0  0  0
 67 68  1  0  0  0
 67212  1  0  0  0
 67213  1  0  0  0
 68 69  1  0  0  0
 68214  1  0  0  0
 68215  1  0  0  0
 69 70  1  0  0  0
 69216  1  0  0  0
 69217  1  0  0  0
 70 71  1  0  0  0
 70218  1  0  0  0
 70219  1  0  0  0
 71 72  1  0  0  0
 71220  1  0  0  0
 71221  1  0  0  0
 72 73  1  0  0  0
 72222  1  0  0  0
 72223  1  0  0  0
 73 74  1  0  0  0
 73224  1  0  0  0
 73225  1  0  0  0
 74 75  1  0  0  0
 74226  1  0  0  0
 74227  1  0  0  0
 75 76  1  0  0  0
 75228  1  0  0  0
 75229  1  0  0  0
 76 77  1  0  0  0
 76230  1  0  0  0
 76231  1  0  0  0
 77 78  1  0  0  0
 77232  1  0  0  0
 77233  1  0  0  0
 78234  1  0  0  0
 78235  1  0  0  0
 78236  1  0  0  0
M  END
