Methylene chloride, ID: C75092
  NIST    04042217093D 1   1.00000     0.00000      
NIST Chemistry WebBook
  5  4  0     0  0              1 V2000
    0.5990    0.0000    2.3008 Cl  0  0  0  0  0  0           0  0  0
    0.6717    1.0711    0.9090 C   0  0  0  0  0  0           0  0  0
    2.3321    1.6217    0.7366 Cl  0  0  0  0  0  0           0  0  0
    0.3535    0.5346    0.0000 H   0  0  0  0  0  0           0  0  0
    0.0000    1.9325    1.0576 H   0  0  0  0  0  0           0  0  0
  1  2  1  0     0  0
  2  3  1  0     0  0
  2  4  1  0     0  0
  2  5  1  0     0  0
M  END
