
 OpenBabel09021016233D

 16 15  0  0  0  0  0  0  0  0999 V2000
    2.7093    4.1163    0.6939 C   0  0  0  0  0
    1.9440    2.8338    0.9514 C   0  0  0  0  0
    2.7333    1.9144    1.8580 C   0  0  0  0  0
    2.5598    2.0864    3.3517 C   0  0  0  0  0
    3.4861    1.0557    1.3975 O   0  0  0  0  0
    1.4406    1.2023    3.8630 C   0  0  0  0  0
    2.9068    4.6549    1.6265 H   0  0  0  0  0
    2.1392    4.7752    0.0322 H   0  0  0  0  0
    3.6750    3.9075    0.2213 H   0  0  0  0  0
    1.7508    2.3084    0.0101 H   0  0  0  0  0
    0.9712    3.0441    1.4070 H   0  0  0  0  0
    2.3574    3.1385    3.5758 H   0  0  0  0  0
    3.5059    1.8305    3.8408 H   0  0  0  0  0
    1.3165    1.3287    4.9428 H   0  0  0  0  0
    1.6536    0.1465    3.6637 H   0  0  0  0  0
    0.4898    1.4457    3.3774 H   0  0  0  0  0
  1  2  1  0  0  0
  1  7  1  0  0  0
  1  8  1  0  0  0
  1  9  1  0  0  0
  2  3  1  0  0  0
  2 10  1  0  0  0
  2 11  1  0  0  0
  3  4  1  0  0  0
  3  5  2  0  0  0
  4  6  1  0  0  0
  4 12  1  0  0  0
  4 13  1  0  0  0
  6 14  1  0  0  0
  6 15  1  0  0  0
  6 16  1  0  0  0
M  END
