
 OpenBabel09031012573D

  9  8  0  0  0  0  0  0  0  0999 V2000
    1.1265    0.9063    0.9707 C   0  0  0  0  0
    1.8231    2.1303    1.5257 C   0  0  0  0  0
    3.2040    1.8429    1.6874 O   0  0  0  0  0
    0.0576    1.0933    0.8349 H   0  0  0  0  0
    1.2531    0.0519    1.6440 H   0  0  0  0  0
    1.5603    0.6189    0.0074 H   0  0  0  0  0
    1.7172    2.9764    0.8398 H   0  0  0  0  0
    1.4035    2.4030    2.4984 H   0  0  0  0  0
    3.6223    2.6448    2.0452 H   0  0  0  0  0
  6  1  1  0  0  0
  4  1  1  0  0  0
  1  2  1  0  0  0
  1  5  1  0  0  0
  7  2  1  0  0  0
  2  3  1  0  0  0
  2  8  1  0  0  0
  3  9  1  0  0  0
M  END
