
 OpenBabel10271020573D

 14 13  0  0  0  0  0  0  0  0999 V2000
    2.9181    1.4713    2.1499 O   0  0  0  0  0
    2.2212    2.6904    2.4447 C   0  0  0  0  0
    3.2114    3.8379    2.5121 C   0  0  0  0  0
    3.0503    1.1679    0.8300 C   0  0  0  0  0
    3.8751   -0.0716    0.6697 C   0  0  0  0  0
    2.6124    1.8268   -0.1028 O   0  0  0  0  0
    1.4266    2.8903    1.7162 H   0  0  0  0  0
    1.7392    2.5597    3.4189 H   0  0  0  0  0
    2.7093    4.7728    2.7729 H   0  0  0  0  0
    3.9853    3.6314    3.2598 H   0  0  0  0  0
    3.7241    3.9685    1.5538 H   0  0  0  0  0
    3.7206   -0.4841   -0.3311 H   0  0  0  0  0
    4.9312    0.1746    0.8028 H   0  0  0  0  0
    3.5672   -0.8277    1.3968 H   0  0  0  0  0
  1  2  1  0  0  0
  1  4  1  0  0  0
  2  3  1  0  0  0
  2  7  1  0  0  0
  2  8  1  0  0  0
  3  9  1  0  0  0
  3 10  1  0  0  0
  3 11  1  0  0  0
  4  5  1  0  0  0
  4  6  2  0  0  0
  5 12  1  0  0  0
  5 13  1  0  0  0
  5 14  1  0  0  0
M  END
