
 OpenBabel10241017313D

 10 10  0  0  0  0  0  0  0  0999 V2000
   -0.0181   -1.1252    0.0190 O   0  0  0  0  0
    0.7538   -0.0056   -0.0111 C   0  0  0  0  0
   -1.3783   -0.7389    0.0416 C   0  0  0  0  0
   -1.3681    0.7564    0.0418 C   0  0  0  0  0
   -0.0036    1.1244   -0.0032 O   0  0  0  0  0
    1.9724   -0.0138   -0.0413 O   0  0  0  0  0
   -1.8614   -1.1463    0.9354 H   0  0  0  0  0
   -1.8904   -1.1462   -0.8362 H   0  0  0  0  0
   -1.8306    1.1703    0.9439 H   0  0  0  0  0
   -1.8896    1.1706   -0.8270 H   0  0  0  0  0
  1  2  1  0  0  0
  3  1  1  0  0  0
  2  5  1  0  0  0
  2  6  2  0  0  0
  4  3  1  0  0  0
  3  7  1  0  0  0
  3  8  1  0  0  0
  5  4  1  0  0  0
  4  9  1  0  0  0
  4 10  1  0  0  0
M  END
