Benzene, 1-ethenyl-3-methyl-, ID: C100801
  NIST    04042217083D 1   1.00000     0.00000      
NIST Chemistry WebBook
 19 19  0     0  0              1 V2000
    5.7001    4.3450    0.3935 C   0  0  0  0  0  0           0  0  0
    4.9813    3.2455    0.6113 C   0  0  0  0  0  0           0  0  0
    3.6197    3.2796    1.1421 C   0  0  0  0  0  0           0  0  0
    2.9258    2.0842    1.3467 C   0  0  0  0  0  0           0  0  0
    3.0009    4.4951    1.4493 C   0  0  0  0  0  0           0  0  0
    1.6261    2.1028    1.8521 C   0  0  0  0  0  0           0  0  0
    1.7078    4.5137    1.9547 C   0  0  0  0  0  0           0  0  0
    0.8862    0.8298    2.0526 C   0  0  0  0  0  0           0  0  0
    1.0198    3.3229    2.1571 C   0  0  0  0  0  0           0  0  0
    5.3041    5.3402    0.6029 H   0  0  0  0  0  0           0  0  0
    6.7106    4.3250    0.0000 H   0  0  0  0  0  0           0  0  0
    5.3918    2.2508    0.3965 H   0  0  0  0  0  0           0  0  0
    3.4042    1.1260    1.1099 H   0  0  0  0  0  0           0  0  0
    3.5606    5.4283    1.2831 H   0  0  0  0  0  0           0  0  0
    1.2295    5.4687    2.1948 H   0  0  0  0  0  0           0  0  0
    0.1485    0.9089    2.8621 H   0  0  0  0  0  0           0  0  0
    0.3445    0.5539    1.1374 H   0  0  0  0  0  0           0  0  0
    1.5617    0.0000    2.2995 H   0  0  0  0  0  0           0  0  0
    0.0000    3.3401    2.5573 H   0  0  0  0  0  0           0  0  0
  1  2  2  0     0  0
  1 10  1  0     0  0
  1 11  1  0     0  0
  2  3  1  0     0  0
  2 12  1  0     0  0
  3  4  2  0     0  0
  5  3  1  0     0  0
  4  6  1  0     0  0
  4 13  1  0     0  0
  7  5  2  0     0  0
  5 14  1  0     0  0
  6  8  1  0     0  0
  6  9  2  0     0  0
  9  7  1  0     0  0
  7 15  1  0     0  0
  8 16  1  0     0  0
  8 17  1  0     0  0
  8 18  1  0     0  0
  9 19  1  0     0  0
M  END
