
 OpenBabel09021015583D

 12 11  0  0  0  0  0  0  0  0999 V2000
    0.7630    1.5553    1.3930 C   0  0  0  0  0
    2.1507    1.0188    1.0723 C   0  0  0  0  0
    3.2437    1.8951    1.6562 C   0  0  0  0  0
   -0.2248    0.7116    0.8174 O   0  0  0  0  0
    0.5934    1.6016    2.4733 H   0  0  0  0  0
    0.6296    2.5600    0.9814 H   0  0  0  0  0
    2.2734    0.9437   -0.0152 H   0  0  0  0  0
    2.2499   -0.0041    1.4572 H   0  0  0  0  0
    3.1620    1.9497    2.7462 H   0  0  0  0  0
    3.1864    2.9123    1.2556 H   0  0  0  0  0
    4.2292    1.4880    1.4093 H   0  0  0  0  0
   -0.1127   -0.1753    1.2009 H   0  0  0  0  0
  1  2  1  0  0  0
  1  4  1  0  0  0
  1  5  1  0  0  0
  1  6  1  0  0  0
  2  3  1  0  0  0
  2  7  1  0  0  0
  2  8  1  0  0  0
  3  9  1  0  0  0
  3 10  1  0  0  0
  3 11  1  0  0  0
  4 12  1  0  0  0
M  END
