Benzene, (1-methylpropyl)-, ID: C135988
  NIST    04042217083D 1   1.00000     0.00000      
NIST Chemistry WebBook
 24 24  0     0  0              1 V2000
    2.1639    1.2989    0.8915 C   0  0  0  0  0  0           0  0  0
    2.4870    2.1177    2.1456 C   0  0  0  0  0  0           0  0  0
    2.7557    1.2269    3.3492 C   0  0  0  0  0  0           0  0  0
    3.6615    3.0213    1.8819 C   0  0  0  0  0  0           0  0  0
    0.7852    0.6797    0.9465 C   0  0  0  0  0  0           0  0  0
    4.9276    2.5066    1.5972 C   0  0  0  0  0  0           0  0  0
    3.4796    4.4058    1.9134 C   0  0  0  0  0  0           0  0  0
    5.9941    3.3625    1.3486 C   0  0  0  0  0  0           0  0  0
    4.5485    5.2594    1.6642 C   0  0  0  0  0  0           0  0  0
    5.8071    4.7401    1.3816 C   0  0  0  0  0  0           0  0  0
    2.9303    0.5103    0.7501 H   0  0  0  0  0  0           0  0  0
    2.2404    1.9527    0.0000 H   0  0  0  0  0  0           0  0  0
    1.5964    2.7549    2.3804 H   0  0  0  0  0  0           0  0  0
    3.6123    0.5592    3.1827 H   0  0  0  0  0  0           0  0  0
    1.8866    0.5944    3.5760 H   0  0  0  0  0  0           0  0  0
    2.9738    1.8243    4.2434 H   0  0  0  0  0  0           0  0  0
    0.6755    0.0000    1.8028 H   0  0  0  0  0  0           0  0  0
    0.5772    0.0984    0.0390 H   0  0  0  0  0  0           0  0  0
    0.0000    1.4427    1.0351 H   0  0  0  0  0  0           0  0  0
    5.0802    1.4209    1.5686 H   0  0  0  0  0  0           0  0  0
    2.4905    4.8234    2.1349 H   0  0  0  0  0  0           0  0  0
    6.9834    2.9498    1.1259 H   0  0  0  0  0  0           0  0  0
    4.3973    6.3434    1.6902 H   0  0  0  0  0  0           0  0  0
    6.6476    5.4133    1.1859 H   0  0  0  0  0  0           0  0  0
  1  2  1  0     0  0
  1  5  1  0     0  0
  1 11  1  0     0  0
  1 12  1  0     0  0
  2  3  1  0     0  0
  2  4  1  0     0  0
  2 13  1  0     0  0
  3 14  1  0     0  0
  3 15  1  0     0  0
  3 16  1  0     0  0
  6  4  2  0     0  0
  4  7  1  0     0  0
  5 17  1  0     0  0
  5 18  1  0     0  0
  5 19  1  0     0  0
  8  6  1  0     0  0
  6 20  1  0     0  0
  7  9  2  0     0  0
  7 21  1  0     0  0
 10  8  2  0     0  0
  8 22  1  0     0  0
  9 10  1  0     0  0
  9 23  1  0     0  0
 10 24  1  0     0  0
M  END
