2H-Pyran, tetrahydro-, ID: C142687
  NIST    04042217083D 1   1.00000     0.00000      
NIST Chemistry WebBook
 16 16  0     0  0              1 V2000
    1.5831    2.7549    2.3607 C   0  0  0  0  0  0           0  0  0
    1.0072    1.9141    1.2322 C   0  0  0  0  0  0           0  0  0
    3.0185    3.1432    2.0431 C   0  0  0  0  0  0           0  0  0
    1.9280    0.7337    0.9295 C   0  0  0  0  0  0           0  0  0
    3.8387    1.9016    1.6988 C   0  0  0  0  0  0           0  0  0
    3.2604    1.1307    0.6618 O   0  0  0  0  0  0           0  0  0
    1.5449    2.1891    3.3129 H   0  0  0  0  0  0           0  0  0
    0.9659    3.6588    2.5217 H   0  0  0  0  0  0           0  0  0
    0.8734    2.5378    0.3267 H   0  0  0  0  0  0           0  0  0
    0.0000    1.5420    1.4975 H   0  0  0  0  0  0           0  0  0
    3.4798    3.6680    2.9005 H   0  0  0  0  0  0           0  0  0
    3.0379    3.8611    1.1997 H   0  0  0  0  0  0           0  0  0
    1.6487    0.2110    0.0000 H   0  0  0  0  0  0           0  0  0
    1.9177    0.0000    1.7586 H   0  0  0  0  0  0           0  0  0
    3.9914    1.2669    2.5932 H   0  0  0  0  0  0           0  0  0
    4.8263    2.1540    1.2794 H   0  0  0  0  0  0           0  0  0
  2  1  1  0     0  0
  1  3  1  0     0  0
  1  7  1  0     0  0
  1  8  1  0     0  0
  4  2  1  0     0  0
  2  9  1  0     0  0
  2 10  1  0     0  0
  3  5  1  0     0  0
  3 11  1  0     0  0
  3 12  1  0     0  0
  6  4  1  0     0  0
  4 13  1  0     0  0
  4 14  1  0     0  0
  5  6  1  0     0  0
  5 15  1  0     0  0
  5 16  1  0     0  0
M  END
