Ethane, 1,2-dichloro-, ID: C107062
  NIST    04042217083D 1   1.00000     0.00000      
NIST Chemistry WebBook
  8  7  0     0  0              1 V2000
    2.3785    0.7551    0.8326 C   0  0  0  0  0  0           0  0  0
    1.5134    1.8542    1.3880 C   0  0  0  0  0  0           0  0  0
    0.0000    1.1383    1.9817 Cl  0  0  0  0  0  0           0  0  0
    3.8896    1.4714    0.2337 Cl  0  0  0  0  0  0           0  0  0
    1.8822    0.2254    0.0000 H   0  0  0  0  0  0           0  0  0
    2.6233    0.0000    1.6007 H   0  0  0  0  0  0           0  0  0
    1.2715    2.6111    0.6209 H   0  0  0  0  0  0           0  0  0
    2.0083    2.3814    2.2230 H   0  0  0  0  0  0           0  0  0
  1  2  1  0     0  0
  1  4  1  0     0  0
  1  5  1  0     0  0
  1  6  1  0     0  0
  2  3  1  0     0  0
  2  7  1  0     0  0
  2  8  1  0     0  0
M  END
