1,4-Cyclohexadiene, ID: C628411
  NIST    04042217093D 1   1.00000     0.00000      
NIST Chemistry WebBook
 14 14  0     0  0              1 V2000
    1.7363    3.4486    0.8997 C   0  0  0  0  0  0           0  0  0
    1.0957    2.1081    0.8772 C   0  0  0  0  0  0           0  0  0
    1.7900    0.9699    0.8696 C   0  0  0  0  0  0           0  0  0
    3.2751    0.9258    0.8818 C   0  0  0  0  0  0           0  0  0
    3.9157    2.2666    0.8848 C   0  0  0  0  0  0           0  0  0
    3.2216    3.4048    0.8932 C   0  0  0  0  0  0           0  0  0
    1.3927    4.0012    1.7981 H   0  0  0  0  0  0           0  0  0
    1.3848    4.0356    0.0265 H   0  0  0  0  0  0           0  0  0
    0.0000    2.0993    0.8678 H   0  0  0  0  0  0           0  0  0
    1.2806    0.0000    0.8538 H   0  0  0  0  0  0           0  0  0
    3.6302    0.3539    0.0000 H   0  0  0  0  0  0           0  0  0
    3.6153    0.3579    1.7721 H   0  0  0  0  0  0           0  0  0
    5.0113    2.2757    0.8802 H   0  0  0  0  0  0           0  0  0
    3.7309    4.3748    0.8958 H   0  0  0  0  0  0           0  0  0
  2  1  1  0     0  0
  1  6  1  0     0  0
  1  7  1  0     0  0
  1  8  1  0     0  0
  3  2  2  0     0  0
  2  9  1  0     0  0
  4  3  1  0     0  0
  3 10  1  0     0  0
  5  4  1  0     0  0
  4 11  1  0     0  0
  4 12  1  0     0  0
  6  5  2  0     0  0
  5 13  1  0     0  0
  6 14  1  0     0  0
M  END
