Butane, 1-chloro-, ID: C109693
  NIST    04042217083D 1   1.00000     0.00000      
NIST Chemistry WebBook
 14 13  0     0  0              1 V2000
    2.4611    0.9339    1.2202 C   0  0  0  0  0  0           0  0  0
    2.1588    2.2144    1.9820 C   0  0  0  0  0  0           0  0  0
    0.7582    2.2178    2.5470 C   0  0  0  0  0  0           0  0  0
    3.8764    0.9276    0.6899 C   0  0  0  0  0  0           0  0  0
    0.6330    0.9909    3.8349 Cl  0  0  0  0  0  0           0  0  0
    2.2962    0.0617    1.8853 H   0  0  0  0  0  0           0  0  0
    1.7426    0.8130    0.3852 H   0  0  0  0  0  0           0  0  0
    2.8951    2.3516    2.7993 H   0  0  0  0  0  0           0  0  0
    2.2854    3.0894    1.3135 H   0  0  0  0  0  0           0  0  0
    0.4995    3.1974    2.9852 H   0  0  0  0  0  0           0  0  0
    0.0000    1.9868    1.7780 H   0  0  0  0  0  0           0  0  0
    4.0913    0.0000    0.1441 H   0  0  0  0  0  0           0  0  0
    4.0547    1.7631    0.0000 H   0  0  0  0  0  0           0  0  0
    4.6134    1.0104    1.4997 H   0  0  0  0  0  0           0  0  0
  1  2  1  0     0  0
  1  4  1  0     0  0
  1  6  1  0     0  0
  1  7  1  0     0  0
  2  3  1  0     0  0
  2  8  1  0     0  0
  2  9  1  0     0  0
  3  5  1  0     0  0
  3 10  1  0     0  0
  3 11  1  0     0  0
  4 12  1  0     0  0
  4 13  1  0     0  0
  4 14  1  0     0  0
M  END
