1-CHLOROHEXANE.out
 OpenBabel06201011273D

 20 19  0  0  0  0  0  0  0  0999 V2000
    0.0090   -0.0189   -0.0408 C   0  0  0  0  0
    1.5289   -0.0189   -0.0408 C   0  0  0  0  0
    2.0784    1.3985   -0.0408 C   0  0  0  0  0
   -0.5447   -1.4349   -0.0408 C   0  0  0  0  0
    3.5898    1.3949   -0.0407 C   0  0  0  0  0
   -2.0566   -1.4372   -0.0399 C   0  0  0  0  0
    4.1670    3.0784   -0.0436 Cl  0  0  0  0  0
   -0.3701    0.5348    0.8419 H   0  0  0  0  0
   -0.3702    0.5348   -0.9234 H   0  0  0  0  0
    1.9079   -0.5721    0.8423 H   0  0  0  0  0
    1.9079   -0.5721   -0.9238 H   0  0  0  0  0
    1.7035    1.9549    0.8416 H   0  0  0  0  0
    1.7036    1.9548   -0.9233 H   0  0  0  0  0
   -0.1647   -1.9881    0.8411 H   0  0  0  0  0
   -0.1658   -1.9876   -0.9236 H   0  0  0  0  0
    4.0015    0.8878    0.8500 H   0  0  0  0  0
    4.0016    0.8847   -0.9295 H   0  0  0  0  0
   -2.4620   -0.9286    0.8450 H   0  0  0  0  0
   -2.4533   -2.4605   -0.0406 H   0  0  0  0  0
   -2.4631   -0.9270   -0.9233 H   0  0  0  0  0
  9  1  1  0  0  0
  4  1  1  0  0  0
  2  1  1  0  0  0
  1  8  1  0  0  0
 11  2  1  0  0  0
  3  2  1  0  0  0
  2 10  1  0  0  0
 13  3  1  0  0  0
  3  5  1  0  0  0
  3 12  1  0  0  0
 15  4  1  0  0  0
  4  6  1  0  0  0
  4 14  1  0  0  0
 17  5  1  0  0  0
  7  5  1  0  0  0
  5 16  1  0  0  0
 20  6  1  0  0  0
 19  6  1  0  0  0
  6 18  1  0  0  0
M  END
