1-Decanol, ID: C112301
  NIST    04042217083D 1   1.00000     0.00000      
NIST Chemistry WebBook
 33 32  0     0  0              1 V2000
    3.9513    3.9539    3.4223 C   0  0  0  0  0  0           0  0  0
    5.3742    3.6501    2.9919 C   0  0  0  0  0  0           0  0  0
    5.4628    3.3769    1.4980 C   0  0  0  0  0  0           0  0  0
    3.8681    4.2618    4.9099 C   0  0  0  0  0  0           0  0  0
    6.8485    2.8860    1.1039 C   0  0  0  0  0  0           0  0  0
    2.4769    4.7340    5.3039 C   0  0  0  0  0  0           0  0  0
    7.1482    1.5243    1.7120 C   0  0  0  0  0  0           0  0  0
    2.1371    6.0695    4.6594 C   0  0  0  0  0  0           0  0  0
    8.5911    1.0873    1.4799 C   0  0  0  0  0  0           0  0  0
    0.6989    6.4612    4.9062 C   0  0  0  0  0  0           0  0  0
    9.4207    1.7974    2.3717 O   0  0  0  0  0  0           0  0  0
    3.2876    3.1010    3.1765 H   0  0  0  0  0  0           0  0  0
    3.5448    4.8204    2.8514 H   0  0  0  0  0  0           0  0  0
    5.7647    2.7620    3.5416 H   0  0  0  0  0  0           0  0  0
    6.0481    4.4856    3.2676 H   0  0  0  0  0  0           0  0  0
    5.2152    4.2952    0.9306 H   0  0  0  0  0  0           0  0  0
    4.7009    2.6277    1.2026 H   0  0  0  0  0  0           0  0  0
    4.6165    5.0346    5.1791 H   0  0  0  0  0  0           0  0  0
    4.1425    3.3633    5.4967 H   0  0  0  0  0  0           0  0  0
    6.9268    2.8330    0.0000 H   0  0  0  0  0  0           0  0  0
    7.6135    3.6205    1.4249 H   0  0  0  0  0  0           0  0  0
    2.4081    4.8188    6.4061 H   0  0  0  0  0  0           0  0  0
    1.7247    3.9725    5.0151 H   0  0  0  0  0  0           0  0  0
    6.9124    1.5588    2.8012 H   0  0  0  0  0  0           0  0  0
    6.4700    0.7612    1.2826 H   0  0  0  0  0  0           0  0  0
    2.3443    6.0022    3.5669 H   0  0  0  0  0  0           0  0  0
    2.8173    6.8562    5.0407 H   0  0  0  0  0  0           0  0  0
    8.6988    0.0000    1.6630 H   0  0  0  0  0  0           0  0  0
    8.8972    1.2769    0.4316 H   0  0  0  0  0  0           0  0  0
    0.4616    7.4232    4.4350 H   0  0  0  0  0  0           0  0  0
    0.0000    5.7168    4.5022 H   0  0  0  0  0  0           0  0  0
    0.4860    6.5590    5.9790 H   0  0  0  0  0  0           0  0  0
   10.3117    1.5583    2.1571 H   0  0  0  0  0  0           0  0  0
  1  2  1  0     0  0
  1  4  1  0     0  0
  1 12  1  0     0  0
  1 13  1  0     0  0
  2  3  1  0     0  0
  2 14  1  0     0  0
  2 15  1  0     0  0
  3  5  1  0     0  0
  3 16  1  0     0  0
  3 17  1  0     0  0
  4  6  1  0     0  0
  4 18  1  0     0  0
  4 19  1  0     0  0
  5  7  1  0     0  0
  5 20  1  0     0  0
  5 21  1  0     0  0
  6  8  1  0     0  0
  6 22  1  0     0  0
  6 23  1  0     0  0
  7  9  1  0     0  0
  7 24  1  0     0  0
  7 25  1  0     0  0
  8 10  1  0     0  0
  8 26  1  0     0  0
  8 27  1  0     0  0
  9 11  1  0     0  0
  9 28  1  0     0  0
  9 29  1  0     0  0
 10 30  1  0     0  0
 10 31  1  0     0  0
 10 32  1  0     0  0
 11 33  1  0     0  0
M  END
