Cyclohexene, 1-methyl-, ID: C591491
  NIST    04042217093D 1   1.00000     0.00000      
NIST Chemistry WebBook
 19 19  0     0  0              1 V2000
    0.4443    2.1398    1.1225 C   0  0  0  0  0  0           0  0  0
    1.9262    2.1119    1.2325 C   0  0  0  0  0  0           0  0  0
    2.6027    3.4436    1.2290 C   0  0  0  0  0  0           0  0  0
    2.6060    0.9615    1.3145 C   0  0  0  0  0  0           0  0  0
    4.0355    3.3725    1.7332 C   0  0  0  0  0  0           0  0  0
    4.0852    0.8909    1.4369 C   0  0  0  0  0  0           0  0  0
    4.7711    2.2053    1.0989 C   0  0  0  0  0  0           0  0  0
    0.1315    2.7029    0.2327 H   0  0  0  0  0  0           0  0  0
    0.0081    1.1349    1.0500 H   0  0  0  0  0  0           0  0  0
    0.0000    2.6309    1.9993 H   0  0  0  0  0  0           0  0  0
    2.5776    3.8403    0.1935 H   0  0  0  0  0  0           0  0  0
    2.0208    4.1599    1.8425 H   0  0  0  0  0  0           0  0  0
    2.0781    0.0000    1.3102 H   0  0  0  0  0  0           0  0  0
    4.5596    4.3226    1.5150 H   0  0  0  0  0  0           0  0  0
    4.0464    3.2679    2.8361 H   0  0  0  0  0  0           0  0  0
    4.3334    0.5854    2.4740 H   0  0  0  0  0  0           0  0  0
    4.4720    0.0840    0.7837 H   0  0  0  0  0  0           0  0  0
    4.8139    2.3393    0.0000 H   0  0  0  0  0  0           0  0  0
    5.8233    2.1810    1.4413 H   0  0  0  0  0  0           0  0  0
  1  2  1  0     0  0
  1  8  1  0     0  0
  1  9  1  0     0  0
  1 10  1  0     0  0
  2  3  1  0     0  0
  4  2  2  0     0  0
  3  5  1  0     0  0
  3 11  1  0     0  0
  3 12  1  0     0  0
  6  4  1  0     0  0
  4 13  1  0     0  0
  5  7  1  0     0  0
  5 14  1  0     0  0
  5 15  1  0     0  0
  7  6  1  0     0  0
  6 16  1  0     0  0
  6 17  1  0     0  0
  7 18  1  0     0  0
  7 19  1  0     0  0
M  END
