Pentane, 2,2,4-trimethyl-, ID: C540841
  NIST    04042217093D 1   1.00000     0.00000      
NIST Chemistry WebBook
 26 25  0     0  0              1 V2000
    3.4467    2.4746    1.3963 C   0  0  0  0  0  0           0  0  0
    2.0732    2.0910    1.9806 C   0  0  0  0  0  0           0  0  0
    4.6298    2.3634    2.3654 C   0  0  0  0  0  0           0  0  0
    1.7907    2.8856    3.2535 C   0  0  0  0  0  0           0  0  0
    2.0066    0.5959    2.2821 C   0  0  0  0  0  0           0  0  0
    0.9992    2.4251    0.9422 C   0  0  0  0  0  0           0  0  0
    5.2651    0.9830    2.3275 C   0  0  0  0  0  0           0  0  0
    5.6762    3.4190    2.0416 C   0  0  0  0  0  0           0  0  0
    3.6403    1.8566    0.4960 H   0  0  0  0  0  0           0  0  0
    3.3782    3.5203    1.0297 H   0  0  0  0  0  0           0  0  0
    4.2508    2.5490    3.4067 H   0  0  0  0  0  0           0  0  0
    1.7336    3.9625    3.0477 H   0  0  0  0  0  0           0  0  0
    0.8420    2.5836    3.7153 H   0  0  0  0  0  0           0  0  0
    2.5915    2.7347    3.9958 H   0  0  0  0  0  0           0  0  0
    2.8186    0.2864    2.9600 H   0  0  0  0  0  0           0  0  0
    2.1058    0.0000    1.3649 H   0  0  0  0  0  0           0  0  0
    1.0536    0.3229    2.7532 H   0  0  0  0  0  0           0  0  0
    1.1707    1.8878    0.0000 H   0  0  0  0  0  0           0  0  0
    0.0000    2.1481    1.3035 H   0  0  0  0  0  0           0  0  0
    0.9792    3.4986    0.7110 H   0  0  0  0  0  0           0  0  0
    5.6463    0.7357    1.3278 H   0  0  0  0  0  0           0  0  0
    4.5346    0.2063    2.6065 H   0  0  0  0  0  0           0  0  0
    6.1078    0.9122    3.0275 H   0  0  0  0  0  0           0  0  0
    6.5402    3.3427    2.7147 H   0  0  0  0  0  0           0  0  0
    6.0505    3.3144    1.0145 H   0  0  0  0  0  0           0  0  0
    5.2710    4.4346    2.1424 H   0  0  0  0  0  0           0  0  0
  1  2  1  0     0  0
  1  3  1  0     0  0
  1  9  1  0     0  0
  1 10  1  0     0  0
  2  4  1  0     0  0
  2  5  1  0     0  0
  2  6  1  0     0  0
  3  7  1  0     0  0
  3  8  1  0     0  0
  3 11  1  0     0  0
  4 12  1  0     0  0
  4 13  1  0     0  0
  4 14  1  0     0  0
  5 15  1  0     0  0
  5 16  1  0     0  0
  5 17  1  0     0  0
  6 18  1  0     0  0
  6 19  1  0     0  0
  6 20  1  0     0  0
  7 21  1  0     0  0
  7 22  1  0     0  0
  7 23  1  0     0  0
  8 24  1  0     0  0
  8 25  1  0     0  0
  8 26  1  0     0  0
M  END
