2-Hexanol, (R)-, ID: C26549246
 OpenBabel09031015073D
NIST Chemistry WebBook
 21 20  0  0  0  0  0  0  0  0999 V2000
    1.5027    3.7581    1.9757 C   0  0  0  0  0
    2.2047    2.4244    1.7753 C   0  0  0  0  0
    3.7249    2.5768    1.8317 C   0  0  0  0  0
    4.4256    1.2283    1.6310 C   0  0  0  0  0
    5.9508    1.3607    1.6509 C   0  0  0  0  0
    6.6238    0.0211    1.3839 C   0  0  0  0  0
    6.3629    1.8348    2.9299 O   0  0  0  0  0
    1.7562    4.1927    2.9480 H   0  0  0  0  0
    1.7868    4.4717    1.1956 H   0  0  0  0  0
    0.4173    3.6251    1.9356 H   0  0  0  0  0
    1.9074    2.0038    0.8074 H   0  0  0  0  0
    1.8715    1.7232    2.5498 H   0  0  0  0  0
    4.0522    3.2784    1.0556 H   0  0  0  0  0
    4.0112    3.0063    2.7985 H   0  0  0  0  0
    4.1056    0.5461    2.4292 H   0  0  0  0  0
    4.1074    0.7914    0.6761 H   0  0  0  0  0
    6.2721    2.0905    0.8992 H   0  0  0  0  0
    6.3680   -0.7081    2.1605 H   0  0  0  0  0
    6.3321   -0.3845    0.4102 H   0  0  0  0  0
    7.7139    0.1296    1.4021 H   0  0  0  0  0
    7.3310    1.9237    2.9123 H   0  0  0  0  0
  1  2  1  0  0  0
  1  8  1  0  0  0
  1  9  1  0  0  0
  1 10  1  0  0  0
  2  3  1  0  0  0
  2 11  1  0  0  0
  2 12  1  0  0  0
  3  4  1  0  0  0
  3 13  1  0  0  0
  3 14  1  0  0  0
  4  5  1  0  0  0
  4 15  1  0  0  0
  4 16  1  0  0  0
  5  6  1  0  0  0
  5  7  1  0  0  0
  5 17  1  0  0  0
  6 18  1  0  0  0
  6 19  1  0  0  0
  6 20  1  0  0  0
  7 21  1  0  0  0
M  END
