2-Heptanone, ID: C110430
  NIST    04042217083D 1   1.00000     0.00000      
NIST Chemistry WebBook
 22 21  0     0  0              1 V2000
    4.9464    2.2233    2.5236 C   0  0  0  0  0  0           0  0  0
    3.5030    1.9850    2.1205 C   0  0  0  0  0  0           0  0  0
    5.8715    1.0562    2.2565 C   0  0  0  0  0  0           0  0  0
    2.6374    3.1939    2.4401 C   0  0  0  0  0  0           0  0  0
    7.3120    1.2984    2.6288 C   0  0  0  0  0  0           0  0  0
    5.5037    0.0000    1.7791 O   0  0  0  0  0  0           0  0  0
    1.1949    2.9937    1.9986 C   0  0  0  0  0  0           0  0  0
    1.0416    3.0461    0.4945 C   0  0  0  0  0  0           0  0  0
    5.0044    2.4669    3.6043 H   0  0  0  0  0  0           0  0  0
    5.3498    3.1111    1.9950 H   0  0  0  0  0  0           0  0  0
    3.1075    1.0859    2.6346 H   0  0  0  0  0  0           0  0  0
    3.4419    1.7534    1.0360 H   0  0  0  0  0  0           0  0  0
    3.0551    4.1007    1.9585 H   0  0  0  0  0  0           0  0  0
    2.6658    3.3944    3.5297 H   0  0  0  0  0  0           0  0  0
    7.3929    1.6438    3.6675 H   0  0  0  0  0  0           0  0  0
    7.7449    2.0754    1.9855 H   0  0  0  0  0  0           0  0  0
    7.9330    0.3989    2.5269 H   0  0  0  0  0  0           0  0  0
    0.5578    3.7719    2.4629 H   0  0  0  0  0  0           0  0  0
    0.8132    2.0270    2.3839 H   0  0  0  0  0  0           0  0  0
    0.0000    2.8763    0.1936 H   0  0  0  0  0  0           0  0  0
    1.6570    2.2804    0.0000 H   0  0  0  0  0  0           0  0  0
    1.3469    4.0201    0.0894 H   0  0  0  0  0  0           0  0  0
  1  2  1  0     0  0
  1  3  1  0     0  0
  1  9  1  0     0  0
  1 10  1  0     0  0
  2  4  1  0     0  0
  2 11  1  0     0  0
  2 12  1  0     0  0
  3  5  1  0     0  0
  3  6  2  0     0  0
  4  7  1  0     0  0
  4 13  1  0     0  0
  4 14  1  0     0  0
  5 15  1  0     0  0
  5 16  1  0     0  0
  5 17  1  0     0  0
  7  8  1  0     0  0
  7 18  1  0     0  0
  7 19  1  0     0  0
  8 20  1  0     0  0
  8 21  1  0     0  0
  8 22  1  0     0  0
M  END
