1-Propene, 2-methyl-, ID: C115117
  NIST    04042217083D 1   1.00000     0.00000      
NIST Chemistry WebBook
 12 11  0     0  0              1 V2000
    0.9772    0.9953    1.3790 C   0  0  0  0  0  0           0  0  0
    2.1008    1.8828    0.9788 C   0  0  0  0  0  0           0  0  0
    3.4573    1.4284    1.3834 C   0  0  0  0  0  0           0  0  0
    1.9044    3.0133    0.3006 C   0  0  0  0  0  0           0  0  0
    1.0905    0.0000    0.9283 H   0  0  0  0  0  0           0  0  0
    0.9554    0.8645    2.4693 H   0  0  0  0  0  0           0  0  0
    0.0000    1.3900    1.0718 H   0  0  0  0  0  0           0  0  0
    3.5254    1.3380    2.4760 H   0  0  0  0  0  0           0  0  0
    3.6794    0.4416    0.9551 H   0  0  0  0  0  0           0  0  0
    4.2465    2.1183    1.0569 H   0  0  0  0  0  0           0  0  0
    2.7168    3.6695    0.0021 H   0  0  0  0  0  0           0  0  0
    0.9185    3.3560    0.0000 H   0  0  0  0  0  0           0  0  0
  1  2  1  0     0  0
  1  5  1  0     0  0
  1  6  1  0     0  0
  1  7  1  0     0  0
  2  3  1  0     0  0
  2  4  2  0     0  0
  3  8  1  0     0  0
  3  9  1  0     0  0
  3 10  1  0     0  0
  4 11  1  0     0  0
  4 12  1  0     0  0
M  END
