1-Butene, 3-methyl-, ID: C563451
  NIST    04042217093D 1   1.00000     0.00000      
NIST Chemistry WebBook
 15 14  0     0  0              1 V2000
    3.3946    2.7424    1.2683 C   0  0  0  0  0  0           0  0  0
    2.1465    2.0277    1.6799 C   0  0  0  0  0  0           0  0  0
    2.1103    0.5579    1.2979 C   0  0  0  0  0  0           0  0  0
    0.9375    2.7481    1.0972 C   0  0  0  0  0  0           0  0  0
    4.4514    2.1942    0.6822 C   0  0  0  0  0  0           0  0  0
    3.3920    3.8168    1.4961 H   0  0  0  0  0  0           0  0  0
    2.1008    2.0979    2.7958 H   0  0  0  0  0  0           0  0  0
    1.1760    0.0890    1.6340 H   0  0  0  0  0  0           0  0  0
    2.1745    0.4169    0.2105 H   0  0  0  0  0  0           0  0  0
    2.9389    0.0000    1.7536 H   0  0  0  0  0  0           0  0  0
    0.9378    2.7119    0.0000 H   0  0  0  0  0  0           0  0  0
    0.0000    2.2918    1.4409 H   0  0  0  0  0  0           0  0  0
    0.9167    3.8054    1.3920 H   0  0  0  0  0  0           0  0  0
    5.3320    2.7723    0.4184 H   0  0  0  0  0  0           0  0  0
    4.5230    1.1412    0.4226 H   0  0  0  0  0  0           0  0  0
  1  2  1  0     0  0
  1  5  2  0     0  0
  1  6  1  0     0  0
  2  3  1  0     0  0
  2  4  1  0     0  0
  2  7  1  0     0  0
  3  8  1  0     0  0
  3  9  1  0     0  0
  3 10  1  0     0  0
  4 11  1  0     0  0
  4 12  1  0     0  0
  4 13  1  0     0  0
  5 14  1  0     0  0
  5 15  1  0     0  0
M  END
