Acetonitrile, ID: C75058
  NIST    04042217093D 1   1.00000     0.00000      
NIST Chemistry WebBook
  6  5  0     0  0              1 V2000
    0.4219    0.8958    0.5193 C   0  0  0  0  0  0           0  0  0
    1.8612    0.9422    0.4897 C   0  0  0  0  0  0           0  0  0
    3.0198    0.9796    0.4659 N   0  0  0  0  0  0           0  0  0
    0.0000    1.7811    0.0257 H   0  0  0  0  0  0           0  0  0
    0.0568    0.0000    0.0000 H   0  0  0  0  0  0           0  0  0
    0.0607    0.8694    1.5558 H   0  0  0  0  0  0           0  0  0
  1  2  1  0     0  0
  1  4  1  0     0  0
  1  5  1  0     0  0
  1  6  1  0     0  0
  2  3  3  0     0  0
M  END
