Ethyl chloride, ID: C75003
  NIST    04042217093D 1   1.00000     0.00000      
NIST Chemistry WebBook
  8  7  0     0  0              1 V2000
    2.3293    1.0003    1.4208 C   0  0  0  0  0  0           0  0  0
    1.2962    1.9903    0.9627 C   0  0  0  0  0  0           0  0  0
    0.0000    2.0828    2.1825 Cl  0  0  0  0  0  0           0  0  0
    2.7761    1.2971    2.3787 H   0  0  0  0  0  0           0  0  0
    3.1426    0.9129    0.6890 H   0  0  0  0  0  0           0  0  0
    1.8978    0.0000    1.5572 H   0  0  0  0  0  0           0  0  0
    0.8412    1.6991    0.0000 H   0  0  0  0  0  0           0  0  0
    1.7196    3.0017    0.8345 H   0  0  0  0  0  0           0  0  0
  1  2  1  0     0  0
  1  4  1  0     0  0
  1  5  1  0     0  0
  1  6  1  0     0  0
  2  3  1  0     0  0
  2  7  1  0     0  0
  2  8  1  0     0  0
M  END
