Cyclohexane, 1,2-dimethyl-, cis-, ID: C2207014
  NIST    04042217083D 1   1.00000     0.00000      
NIST Chemistry WebBook
 24 24  0     0  0              1 V2000
    2.4904    1.0964    5.1609 C   0  0  0  0  0  0           0  0  0
    2.8621    1.0486    3.6897 C   0  0  0  0  0  0           0  0  0
    1.6834    1.3720    2.7500 C   0  0  0  0  0  0           0  0  0
    4.0474    1.9660    3.4008 C   0  0  0  0  0  0           0  0  0
    2.1869    1.7755    1.3559 C   0  0  0  0  0  0           0  0  0
    4.6114    1.7171    2.0069 C   0  0  0  0  0  0           0  0  0
    3.5540    1.1974    1.0409 C   0  0  0  0  0  0           0  0  0
    3.3096    0.7160    5.7858 H   0  0  0  0  0  0           0  0  0
    2.2730    2.1189    5.4994 H   0  0  0  0  0  0           0  0  0
    1.6044    0.4825    5.3695 H   0  0  0  0  0  0           0  0  0
    3.1827    0.0000    3.4636 H   0  0  0  0  0  0           0  0  0
    4.8387    1.8191    4.1614 H   0  0  0  0  0  0           0  0  0
    3.7278    3.0228    3.5052 H   0  0  0  0  0  0           0  0  0
    2.2369    2.8810    1.2742 H   0  0  0  0  0  0           0  0  0
    1.4530    1.4554    0.5913 H   0  0  0  0  0  0           0  0  0
    5.4486    0.9940    2.0557 H   0  0  0  0  0  0           0  0  0
    5.0551    2.6547    1.6192 H   0  0  0  0  0  0           0  0  0
    3.8393    1.4446    0.0000 H   0  0  0  0  0  0           0  0  0
    3.5093    0.0904    1.0785 H   0  0  0  0  0  0           0  0  0
    0.7603    2.4594    3.2778 C   0  0  0  0  0  0           0  0  0
    1.0814    0.4352    2.6521 H   0  0  0  0  0  0           0  0  0
    0.0000    2.7247    2.5309 H   0  0  0  0  0  0           0  0  0
    0.2279    2.1386    4.1832 H   0  0  0  0  0  0           0  0  0
    1.3107    3.3773    3.5279 H   0  0  0  0  0  0           0  0  0
  1  2  1  0     0  0
  1  8  1  0     0  0
  1  9  1  0     0  0
  1 10  1  0     0  0
  2  3  1  0     0  0
  4  2  1  0     0  0
  2 11  1  0     0  0
  3 21  1  0     0  0
  3  5  1  0     0  0
  3 20  1  0     0  0
  4  6  1  0     0  0
  4 12  1  0     0  0
  4 13  1  0     0  0
  7  5  1  0     0  0
  5 14  1  0     0  0
  5 15  1  0     0  0
  6  7  1  0     0  0
  6 16  1  0     0  0
  6 17  1  0     0  0
  7 18  1  0     0  0
  7 19  1  0     0  0
 20 22  1  0     0  0
 20 23  1  0     0  0
 20 24  1  0     0  0
M  END
