Dimethyl sulfoxide, ID: C67685
  NIST    04042217093D 1   1.00000     0.00000      
NIST Chemistry WebBook
 10  9  0     0  0              1 V2000
    0.8293    1.3548    0.5856 C   0  0  0  0  0  0           0  0  0
    2.3997    2.0598    0.0000 S   0  0  0  0  0  0           0  0  0
    3.5575    1.0719    0.9948 C   0  0  0  0  0  0           0  0  0
    2.4513    3.4791    0.6382 O   0  0  0  0  0  0           0  0  0
    0.6145    1.5553    1.6417 H   0  0  0  0  0  0           0  0  0
    0.0000    1.7809    0.0079 H   0  0  0  0  0  0           0  0  0
    0.8098    0.2689    0.4423 H   0  0  0  0  0  0           0  0  0
    4.5856    1.2892    0.6807 H   0  0  0  0  0  0           0  0  0
    3.5068    1.2727    2.0713 H   0  0  0  0  0  0           0  0  0
    3.3852    0.0000    0.8474 H   0  0  0  0  0  0           0  0  0
  1  2  1  0     0  0
  1  5  1  0     0  0
  1  6  1  0     0  0
  1  7  1  0     0  0
  2  3  1  0     0  0
  2  4  2  0     0  0
  3  8  1  0     0  0
  3  9  1  0     0  0
  3 10  1  0     0  0
M  END
