
 OpenBabel10241011073D

 20 19  0  0  0  0  0  0  0  0999 V2000
    3.8768    1.3814    1.2629 C   0  0  0  0  0
    2.5105    1.6196    0.6667 C   0  0  0  0  0
    1.6322    0.6984    1.1524 O   0  0  0  0  0
    2.2523    2.4751   -0.1709 O   0  0  0  0  0
    4.7151    2.6528    1.2790 C   0  0  0  0  0
    0.2989    0.8474    0.6635 C   0  0  0  0  0
    4.2177    3.6263    2.3200 C   0  0  0  0  0
    5.1836    4.5509    2.5778 O   0  0  0  0  0
    3.1135    3.5927    2.8440 O   0  0  0  0  0
    4.8145    5.5488    3.5322 C   0  0  0  0  0
    4.3700    0.6167    0.6529 H   0  0  0  0  0
    3.7647    0.9936    2.2820 H   0  0  0  0  0
    4.7154    3.1527    0.3048 H   0  0  0  0  0
    5.7456    2.3800    1.5349 H   0  0  0  0  0
    0.2772    0.8029   -0.4300 H   0  0  0  0  0
   -0.1327    1.7857    1.0240 H   0  0  0  0  0
   -0.2975    0.0181    1.0537 H   0  0  0  0  0
    4.2038    6.3122    3.0418 H   0  0  0  0  0
    5.7305    6.0178    3.9021 H   0  0  0  0  0
    4.2828    5.1207    4.3885 H   0  0  0  0  0
  1  2  1  0  0  0
  1  5  1  0  0  0
  1 11  1  0  0  0
  1 12  1  0  0  0
  2  3  1  0  0  0
  2  4  2  0  0  0
  3  6  1  0  0  0
  5  7  1  0  0  0
  5 13  1  0  0  0
  5 14  1  0  0  0
  6 15  1  0  0  0
  6 16  1  0  0  0
  6 17  1  0  0  0
  7  8  1  0  0  0
  7  9  2  0  0  0
  8 10  1  0  0  0
 10 18  1  0  0  0
 10 19  1  0  0  0
 10 20  1  0  0  0
M  END
