
 OpenBabel09021015333D

  9  8  0  0  0  0  0  0  0  0999 V2000
    1.1114    0.8989    0.9655 C   0  0  0  0  0
    1.9095    2.0680    1.5044 C   0  0  0  0  0
    3.2765    1.7052    1.6308 O   0  0  0  0  0
    0.0526    1.1583    0.8754 H   0  0  0  0  0
    1.2081    0.0300    1.6243 H   0  0  0  0  0
    1.4847    0.5960   -0.0181 H   0  0  0  0  0
    1.8357    2.9337    0.8396 H   0  0  0  0  0
    1.5416    2.3595    2.4927 H   0  0  0  0  0
    3.5974    1.4593    0.7453 H   0  0  0  0  0
  6  1  1  0  0  0
  4  1  1  0  0  0
  1  2  1  0  0  0
  1  5  1  0  0  0
  7  2  1  0  0  0
  2  3  1  0  0  0
  2  8  1  0  0  0
  3  9  1  0  0  0
M  END
