
 OpenBabel08311014103D

 14 13  0  0  0  0  0  0  0  0999 V2000
    2.4080    1.3101    2.2406 O   0  0  0  0  0
    2.1255    2.7039    2.4173 C   0  0  0  0  0
    1.8928    2.9572    3.8938 C   0  0  0  0  0
    2.6441    0.9489    0.9503 C   0  0  0  0  0
    2.9201   -0.5210    0.8716 C   0  0  0  0  0
    2.6446    1.7053   -0.0112 O   0  0  0  0  0
    2.9750    3.3016    2.0684 H   0  0  0  0  0
    1.2271    2.9721    1.8502 H   0  0  0  0  0
    1.6569    4.0092    4.0768 H   0  0  0  0  0
    1.0696    2.3393    4.2668 H   0  0  0  0  0
    2.7814    2.6882    4.4753 H   0  0  0  0  0
    2.9948   -0.8199   -0.1779 H   0  0  0  0  0
    3.8647   -0.7473    1.3725 H   0  0  0  0  0
    2.0986   -1.0786    1.3290 H   0  0  0  0  0
  1  2  1  0  0  0
  1  4  1  0  0  0
  2  3  1  0  0  0
  2  7  1  0  0  0
  2  8  1  0  0  0
  3  9  1  0  0  0
  3 10  1  0  0  0
  3 11  1  0  0  0
  4  5  1  0  0  0
  4  6  2  0  0  0
  5 12  1  0  0  0
  5 13  1  0  0  0
  5 14  1  0  0  0
M  END
