Propanoic acid, ethyl ester, ID: C105373
  NIST    04042217083D 1   1.00000     0.00000      
NIST Chemistry WebBook
 17 16  0     0  0              1 V2000
    4.5155    1.1458    1.2376 O   0  0  0  0  0  0           0  0  0
    3.3088    1.7718    1.0988 C   0  0  0  0  0  0           0  0  0
    2.1534    0.7997    1.1849 C   0  0  0  0  0  0           0  0  0
    3.2824    2.9751    0.9327 O   0  0  0  0  0  0           0  0  0
    5.7041    1.9354    1.1773 C   0  0  0  0  0  0           0  0  0
    0.8119    1.4653    0.9835 C   0  0  0  0  0  0           0  0  0
    6.8674    0.9735    1.3272 C   0  0  0  0  0  0           0  0  0
    2.1890    0.2960    2.1718 H   0  0  0  0  0  0           0  0  0
    2.3025    0.0000    0.4317 H   0  0  0  0  0  0           0  0  0
    5.6897    2.6882    1.9877 H   0  0  0  0  0  0           0  0  0
    5.7467    2.4760    0.2131 H   0  0  0  0  0  0           0  0  0
    0.6219    2.2385    1.7394 H   0  0  0  0  0  0           0  0  0
    0.7396    1.9477    0.0000 H   0  0  0  0  0  0           0  0  0
    0.0000    0.7296    1.0519 H   0  0  0  0  0  0           0  0  0
    6.8376    0.4336    2.2827 H   0  0  0  0  0  0           0  0  0
    6.8882    0.2212    0.5280 H   0  0  0  0  0  0           0  0  0
    7.8156    1.5249    1.2878 H   0  0  0  0  0  0           0  0  0
  1  2  1  0     0  0
  1  5  1  0     0  0
  2  3  1  0     0  0
  2  4  2  0     0  0
  3  6  1  0     0  0
  3  8  1  0     0  0
  3  9  1  0     0  0
  5  7  1  0     0  0
  5 10  1  0     0  0
  5 11  1  0     0  0
  6 12  1  0     0  0
  6 13  1  0     0  0
  6 14  1  0     0  0
  7 15  1  0     0  0
  7 16  1  0     0  0
  7 17  1  0     0  0
M  END
