
 OpenBabel10241010493D

 24 24  0  0  0  0  0  0  0  0999 V2000
   -2.3141    1.7579    0.6639 C   0  0  0  0  0
   -1.1129    0.9351    0.2873 C   0  0  0  0  0
    0.0643    1.5170    0.0146 C   0  0  0  0  0
   -1.3498   -0.5536    0.1976 C   0  0  0  0  0
    1.1994    0.7140   -0.4873 C   0  0  0  0  0
    0.5838   -1.9142    1.1381 C   0  0  0  0  0
    0.8962   -0.6650   -1.0231 C   0  0  0  0  0
   -0.1144   -1.4277   -0.1488 C   0  0  0  0  0
   -0.5965   -2.6689   -0.9258 C   0  0  0  0  0
    2.3162    1.2198   -0.5561 O   0  0  0  0  0
   -2.1038    2.8324    0.6368 H   0  0  0  0  0
   -2.6561    1.5034    1.6712 H   0  0  0  0  0
   -3.1323    1.5686   -0.0401 H   0  0  0  0  0
    0.2344    2.5847    0.0918 H   0  0  0  0  0
   -2.1354   -0.7102   -0.5526 H   0  0  0  0  0
   -1.7721   -0.8934    1.1536 H   0  0  0  0  0
    0.9564   -1.0808    1.7419 H   0  0  0  0  0
    1.4366   -2.5616    0.9000 H   0  0  0  0  0
   -0.1010   -2.4998    1.7624 H   0  0  0  0  0
    1.8385   -1.2221   -1.0923 H   0  0  0  0  0
    0.5161   -0.5354   -2.0439 H   0  0  0  0  0
   -1.1179   -2.3776   -1.8455 H   0  0  0  0  0
   -1.2912   -3.2675   -0.3262 H   0  0  0  0  0
    0.2434   -3.3105   -1.2137 H   0  0  0  0  0
  1  2  1  0  0  0
  1 11  1  0  0  0
  1 12  1  0  0  0
  1 13  1  0  0  0
  2  3  2  0  0  0
  4  2  1  0  0  0
  3  5  1  0  0  0
  3 14  1  0  0  0
  8  4  1  0  0  0
  4 15  1  0  0  0
  4 16  1  0  0  0
  5 10  2  0  0  0
  5  7  1  0  0  0
  8  6  1  0  0  0
  6 17  1  0  0  0
  6 18  1  0  0  0
  6 19  1  0  0  0
  7  8  1  0  0  0
  7 20  1  0  0  0
  7 21  1  0  0  0
  8  9  1  0  0  0
  9 22  1  0  0  0
  9 23  1  0  0  0
  9 24  1  0  0  0
M  END
