Limonene, ID: C138863
  NIST    04042217083D 1   1.00000     0.00000      
NIST Chemistry WebBook
 26 26  0     0  0              1 V2000
    2.0085    2.9850    2.9345 C   0  0  0  0  0  0           0  0  0
    3.3486    3.6840    3.0973 C   0  0  0  0  0  0           0  0  0
    4.0413    3.8341    1.7439 C   0  0  0  0  0  0           0  0  0
    2.0933    1.7720    2.0673 C   0  0  0  0  0  0           0  0  0
    3.1266    1.5492    1.2457 C   0  0  0  0  0  0           0  0  0
    0.9466    0.8313    2.1592 C   0  0  0  0  0  0           0  0  0
    4.2980    2.4556    1.1317 C   0  0  0  0  0  0           0  0  0
    5.3215    4.6159    1.8681 C   0  0  0  0  0  0           0  0  0
    5.3908    5.8688    1.0695 C   0  0  0  0  0  0           0  0  0
    6.3353    4.2231    2.6397 C   0  0  0  0  0  0           0  0  0
    1.6069    2.7064    3.9291 H   0  0  0  0  0  0           0  0  0
    1.2633    3.6759    2.4895 H   0  0  0  0  0  0           0  0  0
    3.2045    4.6776    3.5635 H   0  0  0  0  0  0           0  0  0
    3.9969    3.1146    3.7932 H   0  0  0  0  0  0           0  0  0
    3.3469    4.3913    1.0655 H   0  0  0  0  0  0           0  0  0
    3.1555    0.6501    0.6178 H   0  0  0  0  0  0           0  0  0
    0.8806    0.3987    3.1670 H   0  0  0  0  0  0           0  0  0
    0.0000    1.3518    1.9598 H   0  0  0  0  0  0           0  0  0
    1.0253    0.0000    1.4463 H   0  0  0  0  0  0           0  0  0
    5.1642    1.9665    1.6245 H   0  0  0  0  0  0           0  0  0
    4.5796    2.5678    0.0661 H   0  0  0  0  0  0           0  0  0
    6.3493    6.3910    1.1877 H   0  0  0  0  0  0           0  0  0
    5.2585    5.6544    0.0000 H   0  0  0  0  0  0           0  0  0
    4.5945    6.5636    1.3698 H   0  0  0  0  0  0           0  0  0
    7.2588    4.7881    2.7294 H   0  0  0  0  0  0           0  0  0
    6.3091    3.3125    3.2326 H   0  0  0  0  0  0           0  0  0
  1  2  1  0     0  0
  4  1  1  0     0  0
  1 11  1  0     0  0
  1 12  1  0     0  0
  2  3  1  0     0  0
  2 13  1  0     0  0
  2 14  1  0     0  0
  3  7  1  0     0  0
  3  8  1  0     0  0
  3 15  1  0     0  0
  5  4  2  0     0  0
  4  6  1  0     0  0
  7  5  1  0     0  0
  5 16  1  0     0  0
  6 17  1  0     0  0
  6 18  1  0     0  0
  6 19  1  0     0  0
  7 20  1  0     0  0
  7 21  1  0     0  0
  8  9  1  0     0  0
  8 10  2  0     0  0
  9 22  1  0     0  0
  9 23  1  0     0  0
  9 24  1  0     0  0
 10 25  1  0     0  0
 10 26  1  0     0  0
M  END
