Decanoic acid, ID: C334485
 OpenBabel09031012513D
NIST Chemistry WebBook
 32 31  0  0  0  0  0  0  0  0999 V2000
    4.1668    2.2077    1.3439 C   0  0  0  0  0
    5.2310    1.1683    0.9881 C   0  0  0  0  0
    3.1099    2.3090    0.2437 C   0  0  0  0  0
    6.2894    1.0456    2.0856 C   0  0  0  0  0
    2.0519    3.3579    0.5747 C   0  0  0  0  0
    7.3534    0.0125    1.7103 C   0  0  0  0  0
    1.0233    3.4559   -0.5200 C   0  0  0  0  0
    8.4113   -0.1268    2.8056 C   0  0  0  0  0
    0.4481    4.6730   -0.5716 O   0  0  0  0  0
    0.6718    2.5714   -1.2817 O   0  0  0  0  0
    9.4867   -1.1387    2.4098 C   0  0  0  0  0
   10.5361   -1.2932    3.4988 C   0  0  0  0  0
    4.6428    3.1856    1.4911 H   0  0  0  0  0
    3.6865    1.9351    2.2915 H   0  0  0  0  0
    4.7533    0.1937    0.8304 H   0  0  0  0  0
    5.7135    1.4477    0.0436 H   0  0  0  0  0
    2.6325    1.3318    0.1029 H   0  0  0  0  0
    3.5904    2.5638   -0.7097 H   0  0  0  0  0
    5.8100    0.7560    3.0286 H   0  0  0  0  0
    6.7648    2.0203    2.2496 H   0  0  0  0  0
    1.5343    3.1108    1.5084 H   0  0  0  0  0
    2.5346    4.3351    0.6918 H   0  0  0  0  0
    7.8347    0.3084    0.7701 H   0  0  0  0  0
    6.8762   -0.9597    1.5366 H   0  0  0  0  0
    7.9329   -0.4439    3.7402 H   0  0  0  0  0
    8.8767    0.8481    2.9948 H   0  0  0  0  0
   -0.1993    4.5955   -1.3036 H   0  0  0  0  0
    9.0270   -2.1142    2.2125 H   0  0  0  0  0
    9.9758   -0.8174    1.4827 H   0  0  0  0  0
   10.0861   -1.6575    4.4278 H   0  0  0  0  0
   11.0299   -0.3386    3.7067 H   0  0  0  0  0
   11.3017   -2.0111    3.1880 H   0  0  0  0  0
  1  2  1  0  0  0
  1  3  1  0  0  0
  1 13  1  0  0  0
  1 14  1  0  0  0
  2  4  1  0  0  0
  2 15  1  0  0  0
  2 16  1  0  0  0
  3  5  1  0  0  0
  3 17  1  0  0  0
  3 18  1  0  0  0
  4  6  1  0  0  0
  4 19  1  0  0  0
  4 20  1  0  0  0
  5  7  1  0  0  0
  5 21  1  0  0  0
  5 22  1  0  0  0
  6  8  1  0  0  0
  6 23  1  0  0  0
  6 24  1  0  0  0
  7  9  1  0  0  0
  7 10  2  0  0  0
  8 11  1  0  0  0
  8 25  1  0  0  0
  8 26  1  0  0  0
  9 27  1  0  0  0
 11 12  1  0  0  0
 11 28  1  0  0  0
 11 29  1  0  0  0
 12 30  1  0  0  0
 12 31  1  0  0  0
 12 32  1  0  0  0
M  END
