Dodecanoic acid, ID: C143077
 OpenBabel09031012483D
NIST Chemistry WebBook
 38 37  0  0  0  0  0  0  0  0999 V2000
    4.0649    5.2049    3.5065 C   0  0  0  0  0
    5.2248    4.2389    3.2596 C   0  0  0  0  0
    2.8388    4.4722    4.0521 C   0  0  0  0  0
    6.4599    4.9704    2.7299 C   0  0  0  0  0
    1.6802    5.4312    4.2949 C   0  0  0  0  0
    7.6144    3.9979    2.4825 C   0  0  0  0  0
    0.4901    4.6914    4.8323 C   0  0  0  0  0
    8.8602    4.7231    1.9694 C   0  0  0  0  0
    0.4699    4.6420    6.1772 O   0  0  0  0  0
   -0.3750    4.1401    4.1734 O   0  0  0  0  0
   10.0063    3.7409    1.7195 C   0  0  0  0  0
   11.2626    4.4577    1.2220 C   0  0  0  0  0
   12.3888    3.4641    0.9354 C   0  0  0  0  0
   13.6475    4.1687    0.4544 C   0  0  0  0  0
    4.3763    5.9792    4.2182 H   0  0  0  0  0
    3.8037    5.7123    2.5698 H   0  0  0  0  0
    5.4775    3.7228    4.1939 H   0  0  0  0  0
    4.9156    3.4711    2.5399 H   0  0  0  0  0
    3.0982    3.9621    4.9882 H   0  0  0  0  0
    2.5285    3.6910    3.3470 H   0  0  0  0  0
    6.2091    5.4885    1.7966 H   0  0  0  0  0
    6.7713    5.7352    3.4516 H   0  0  0  0  0
    1.3779    5.9306    3.3673 H   0  0  0  0  0
    1.9591    6.2231    4.9998 H   0  0  0  0  0
    7.8555    3.4703    3.4136 H   0  0  0  0  0
    7.3044    3.2395    1.7529 H   0  0  0  0  0
    8.6209    5.2523    1.0395 H   0  0  0  0  0
    9.1741    5.4773    2.7003 H   0  0  0  0  0
   -0.3326    4.1188    6.3840 H   0  0  0  0  0
    9.6924    2.9932    0.9802 H   0  0  0  0  0
   10.2367    3.2009    2.6464 H   0  0  0  0  0
   11.5933    5.1836    1.9742 H   0  0  0  0  0
   11.0292    5.0202    0.3100 H   0  0  0  0  0
   12.0652    2.7470    0.1720 H   0  0  0  0  0
   12.6213    2.8913    1.8406 H   0  0  0  0  0
   14.0315    4.8504    1.2200 H   0  0  0  0  0
   13.4518    4.7465   -0.4545 H   0  0  0  0  0
   14.4287    3.4359    0.2295 H   0  0  0  0  0
  1  2  1  0  0  0
  1  3  1  0  0  0
  1 15  1  0  0  0
  1 16  1  0  0  0
  2  4  1  0  0  0
  2 17  1  0  0  0
  2 18  1  0  0  0
  3  5  1  0  0  0
  3 19  1  0  0  0
  3 20  1  0  0  0
  4  6  1  0  0  0
  4 21  1  0  0  0
  4 22  1  0  0  0
  5  7  1  0  0  0
  5 23  1  0  0  0
  5 24  1  0  0  0
  6  8  1  0  0  0
  6 25  1  0  0  0
  6 26  1  0  0  0
  7  9  1  0  0  0
  7 10  2  0  0  0
  8 11  1  0  0  0
  8 27  1  0  0  0
  8 28  1  0  0  0
  9 29  1  0  0  0
 11 12  1  0  0  0
 11 30  1  0  0  0
 11 31  1  0  0  0
 12 13  1  0  0  0
 12 32  1  0  0  0
 12 33  1  0  0  0
 13 14  1  0  0  0
 13 34  1  0  0  0
 13 35  1  0  0  0
 14 36  1  0  0  0
 14 37  1  0  0  0
 14 38  1  0  0  0
M  END
