Heptanoic acid, ID: C111148
  NIST    04042217083D 1   1.00000     0.00000      
NIST Chemistry WebBook
 23 22  0     0  0              1 V2000
    6.3928    1.1638    1.2908 C   0  0  0  0  0  0           0  0  0
    5.1877    1.2359    2.2138 C   0  0  0  0  0  0           0  0  0
    3.8969    1.0407    1.4347 C   0  0  0  0  0  0           0  0  0
    7.6949    1.3516    2.0208 C   0  0  0  0  0  0           0  0  0
    2.6863    1.1105    2.3521 C   0  0  0  0  0  0           0  0  0
    8.7950    1.2872    1.2295 O   0  0  0  0  0  0           0  0  0
    7.9181    1.5511    3.2011 O   0  0  0  0  0  0           0  0  0
    1.3782    0.8929    1.6070 C   0  0  0  0  0  0           0  0  0
    0.9666    2.0957    0.7871 C   0  0  0  0  0  0           0  0  0
    6.3157    1.9319    0.4940 H   0  0  0  0  0  0           0  0  0
    6.4158    0.1870    0.7645 H   0  0  0  0  0  0           0  0  0
    5.2730    0.4697    3.0107 H   0  0  0  0  0  0           0  0  0
    5.1709    2.2104    2.7422 H   0  0  0  0  0  0           0  0  0
    3.8146    1.8089    0.6384 H   0  0  0  0  0  0           0  0  0
    3.9163    0.0664    0.9056 H   0  0  0  0  0  0           0  0  0
    2.7857    0.3478    3.1507 H   0  0  0  0  0  0           0  0  0
    2.6654    2.0872    2.8769 H   0  0  0  0  0  0           0  0  0
    9.5780    1.4140    1.7561 H   0  0  0  0  0  0           0  0  0
    0.5807    0.6571    2.3392 H   0  0  0  0  0  0           0  0  0
    1.4595    0.0000    0.9554 H   0  0  0  0  0  0           0  0  0
    0.8664    2.9957    1.4084 H   0  0  0  0  0  0           0  0  0
    1.6980    2.3240    0.0000 H   0  0  0  0  0  0           0  0  0
    0.0000    1.9277    0.2951 H   0  0  0  0  0  0           0  0  0
  1  2  1  0     0  0
  1  4  1  0     0  0
  1 10  1  0     0  0
  1 11  1  0     0  0
  2  3  1  0     0  0
  2 12  1  0     0  0
  2 13  1  0     0  0
  3  5  1  0     0  0
  3 14  1  0     0  0
  3 15  1  0     0  0
  4  6  1  0     0  0
  4  7  2  0     0  0
  5  8  1  0     0  0
  5 16  1  0     0  0
  5 17  1  0     0  0
  6 18  1  0     0  0
  8  9  1  0     0  0
  8 19  1  0     0  0
  8 20  1  0     0  0
  9 21  1  0     0  0
  9 22  1  0     0  0
  9 23  1  0     0  0
M  END
