Octadecane, ID: C593453
 OpenBabel09011009463D
NIST Chemistry WebBook
 56 55  0  0  0  0  0  0  0  0999 V2000
    7.9470    2.1242    2.0016 C   0  0  0  0  0
    7.1473    2.3438    3.2870 C   0  0  0  0  0
    5.9515    3.2662    3.0428 C   0  0  0  0  0
    9.1496    1.2101    2.2391 C   0  0  0  0  0
    5.1905    3.5512    4.3383 C   0  0  0  0  0
    9.9877    1.0584    0.9683 C   0  0  0  0  0
    3.9882    4.4625    4.0848 C   0  0  0  0  0
   11.2047    0.1622    1.2044 C   0  0  0  0  0
    3.2625    4.8037    5.3869 C   0  0  0  0  0
   12.0764    0.0686   -0.0488 C   0  0  0  0  0
    2.0415    5.6876    5.1273 C   0  0  0  0  0
   13.3012   -0.8156    0.1901 C   0  0  0  0  0
    1.3426    6.0697    6.4332 C   0  0  0  0  0
   14.1971   -0.8728   -1.0485 C   0  0  0  0  0
    0.1026    6.9235    6.1711 C   0  0  0  0  0
   15.4103   -1.7730   -0.8151 C   0  0  0  0  0
   -0.5803    7.3258    7.4684 C   0  0  0  0  0
   16.3153   -1.8169   -2.0362 C   0  0  0  0  0
    7.2984    1.6861    1.2334 H   0  0  0  0  0
    8.2923    3.0924    1.6188 H   0  0  0  0  0
    6.7956    1.3795    3.6738 H   0  0  0  0  0
    7.7991    2.7815    4.0531 H   0  0  0  0  0
    6.2999    4.2119    2.6099 H   0  0  0  0  0
    5.2770    2.8053    2.3111 H   0  0  0  0  0
    9.7734    1.6240    3.0406 H   0  0  0  0  0
    8.8035    0.2250    2.5741 H   0  0  0  0  0
    4.8493    2.6082    4.7820 H   0  0  0  0  0
    5.8649    4.0244    5.0621 H   0  0  0  0  0
    9.3699    0.6357    0.1666 H   0  0  0  0  0
   10.3216    2.0475    0.6315 H   0  0  0  0  0
    3.2944    3.9689    3.3930 H   0  0  0  0  0
    4.3231    5.3882    3.6005 H   0  0  0  0  0
   11.7996    0.5624    2.0347 H   0  0  0  0  0
   10.8711   -0.8403    1.4993 H   0  0  0  0  0
    2.9466    3.8803    5.8866 H   0  0  0  0  0
    3.9524    5.3194    6.0656 H   0  0  0  0  0
   11.4863   -0.3376   -0.8788 H   0  0  0  0  0
   12.4017    1.0732   -0.3443 H   0  0  0  0  0
    1.3377    5.1570    4.4737 H   0  0  0  0  0
    2.3503    6.5977    4.5978 H   0  0  0  0  0
   12.9758   -1.8287    0.4577 H   0  0  0  0  0
   13.8766   -0.4262    1.0395 H   0  0  0  0  0
    1.0549    5.1615    6.9763 H   0  0  0  0  0
    2.0412    6.6216    7.0736 H   0  0  0  0  0
   14.5340    0.1389   -1.3039 H   0  0  0  0  0
   13.6211   -1.2472   -1.9028 H   0  0  0  0  0
   -0.6074    6.3667    5.5488 H   0  0  0  0  0
    0.3811    7.8271    5.6166 H   0  0  0  0  0
   15.0777   -2.7902   -0.5769 H   0  0  0  0  0
   15.9850   -1.4099    0.0452 H   0  0  0  0  0
   -1.4705    7.9271    7.2580 H   0  0  0  0  0
   -0.8925    6.4443    8.0381 H   0  0  0  0  0
    0.0906    7.9210    8.0965 H   0  0  0  0  0
   17.1668   -2.4791   -1.8527 H   0  0  0  0  0
   16.7038   -0.8212   -2.2713 H   0  0  0  0  0
   15.7756   -2.1914   -2.9115 H   0  0  0  0  0
  1  2  1  0  0  0
  1  4  1  0  0  0
  1 19  1  0  0  0
  1 20  1  0  0  0
  2  3  1  0  0  0
  2 21  1  0  0  0
  2 22  1  0  0  0
  3  5  1  0  0  0
  3 23  1  0  0  0
  3 24  1  0  0  0
  4  6  1  0  0  0
  4 25  1  0  0  0
  4 26  1  0  0  0
  5  7  1  0  0  0
  5 27  1  0  0  0
  5 28  1  0  0  0
  6  8  1  0  0  0
  6 29  1  0  0  0
  6 30  1  0  0  0
  7  9  1  0  0  0
  7 31  1  0  0  0
  7 32  1  0  0  0
  8 10  1  0  0  0
  8 33  1  0  0  0
  8 34  1  0  0  0
  9 11  1  0  0  0
  9 35  1  0  0  0
  9 36  1  0  0  0
 10 12  1  0  0  0
 10 37  1  0  0  0
 10 38  1  0  0  0
 11 13  1  0  0  0
 11 39  1  0  0  0
 11 40  1  0  0  0
 12 14  1  0  0  0
 12 41  1  0  0  0
 12 42  1  0  0  0
 13 15  1  0  0  0
 13 43  1  0  0  0
 13 44  1  0  0  0
 14 16  1  0  0  0
 14 45  1  0  0  0
 14 46  1  0  0  0
 15 17  1  0  0  0
 15 47  1  0  0  0
 15 48  1  0  0  0
 16 18  1  0  0  0
 16 49  1  0  0  0
 16 50  1  0  0  0
 17 51  1  0  0  0
 17 52  1  0  0  0
 17 53  1  0  0  0
 18 54  1  0  0  0
 18 55  1  0  0  0
 18 56  1  0  0  0
M  END
