Methane, nitro-, ID: C75525
  NIST    04042217093D 1   1.00000     0.00000      
NIST Chemistry WebBook
  7  6  0     0  0              1 V2000
    1.9623    2.3473    0.9393 C   0  0  0  0  0  0           0  0  0
    1.2015    1.0398    0.9862 N   0  0  0  0  0  0           0  0  0
    1.8119    0.0000    0.8473 O   0  0  0  0  0  0           0  0  0
    0.0000    1.0692    1.1583 O   0  0  0  0  0  0           0  0  0
    1.6673    3.0181    1.7608 H   0  0  0  0  0  0           0  0  0
    1.7595    2.8842    0.0000 H   0  0  0  0  0  0           0  0  0
    3.0519    2.2009    1.0034 H   0  0  0  0  0  0           0  0  0
  1  2  1  0     0  0
  1  5  1  0     0  0
  1  6  1  0     0  0
  1  7  1  0     0  0
  2  3  2  0     0  0
  2  4  2  0     0  0
M  END
