Benzene, 1,2-dimethyl-, ID: C95476
  NIST    04042217093D 1   1.00000     0.00000      
NIST Chemistry WebBook
 18 18  0     0  0              1 V2000
    2.4622    0.7186    1.2688 C   0  0  0  0  0  0           0  0  0
    2.9371    2.1268    1.2491 C   0  0  0  0  0  0           0  0  0
    2.0421    3.1967    1.1106 C   0  0  0  0  0  0           0  0  0
    4.3031    2.3863    1.3710 C   0  0  0  0  0  0           0  0  0
    0.5805    2.9609    0.9816 C   0  0  0  0  0  0           0  0  0
    2.5308    4.5048    1.0928 C   0  0  0  0  0  0           0  0  0
    4.7827    3.6895    1.3490 C   0  0  0  0  0  0           0  0  0
    3.8942    4.7505    1.2082 C   0  0  0  0  0  0           0  0  0
    1.9215    0.5044    2.2017 H   0  0  0  0  0  0           0  0  0
    3.2889    0.0000    1.1920 H   0  0  0  0  0  0           0  0  0
    1.7723    0.5202    0.4365 H   0  0  0  0  0  0           0  0  0
    5.0055    1.5521    1.4822 H   0  0  0  0  0  0           0  0  0
    0.3432    2.5267    0.0000 H   0  0  0  0  0  0           0  0  0
    0.0000    3.8869    1.0873 H   0  0  0  0  0  0           0  0  0
    0.2214    2.2583    1.7469 H   0  0  0  0  0  0           0  0  0
    1.8308    5.3421    0.9844 H   0  0  0  0  0  0           0  0  0
    5.8563    3.8803    1.4428 H   0  0  0  0  0  0           0  0  0
    4.2674    5.7798    1.1857 H   0  0  0  0  0  0           0  0  0
  1  2  1  0     0  0
  1  9  1  0     0  0
  1 10  1  0     0  0
  1 11  1  0     0  0
  2  3  2  0     0  0
  4  2  1  0     0  0
  3  5  1  0     0  0
  3  6  1  0     0  0
  7  4  2  0     0  0
  4 12  1  0     0  0
  5 13  1  0     0  0
  5 14  1  0     0  0
  5 15  1  0     0  0
  6  8  2  0     0  0
  6 16  1  0     0  0
  8  7  1  0     0  0
  7 17  1  0     0  0
  8 18  1  0     0  0
M  END
