Acetic acid, phenyl ester, ID: C122792
  NIST    04042217083D 1   1.00000     0.00000      
NIST Chemistry WebBook
 18 18  0     0  0              1 V2000
    1.8900    2.0690    0.7922 C   0  0  0  0  0  0           0  0  0
    2.9823    1.9158    1.6125 O   0  0  0  0  0  0           0  0  0
    4.0058    2.8618    1.5738 C   0  0  0  0  0  0           0  0  0
    0.8653    0.9932    1.0165 C   0  0  0  0  0  0           0  0  0
    1.8472    2.9853    0.0000 O   0  0  0  0  0  0           0  0  0
    3.8134    4.1632    2.0464 C   0  0  0  0  0  0           0  0  0
    5.2665    2.4221    1.1552 C   0  0  0  0  0  0           0  0  0
    4.9014    5.0284    2.0988 C   0  0  0  0  0  0           0  0  0
    6.3400    3.3015    1.2198 C   0  0  0  0  0  0           0  0  0
    6.1586    4.5989    1.6902 C   0  0  0  0  0  0           0  0  0
    0.5043    1.0033    2.0533 H   0  0  0  0  0  0           0  0  0
    0.0000    1.1292    0.3553 H   0  0  0  0  0  0           0  0  0
    1.2900    0.0000    0.8199 H   0  0  0  0  0  0           0  0  0
    2.8205    4.5028    2.3606 H   0  0  0  0  0  0           0  0  0
    5.4061    1.3998    0.7876 H   0  0  0  0  0  0           0  0  0
    4.7650    6.0516    2.4644 H   0  0  0  0  0  0           0  0  0
    7.3324    2.9707    0.8962 H   0  0  0  0  0  0           0  0  0
    7.0099    5.2859    1.7346 H   0  0  0  0  0  0           0  0  0
  1  2  1  0     0  0
  1  4  1  0     0  0
  1  5  2  0     0  0
  2  3  1  0     0  0
  3  6  2  0     0  0
  7  3  1  0     0  0
  4 11  1  0     0  0
  4 12  1  0     0  0
  4 13  1  0     0  0
  6  8  1  0     0  0
  6 14  1  0     0  0
  9  7  2  0     0  0
  7 15  1  0     0  0
  8 10  2  0     0  0
  8 16  1  0     0  0
 10  9  1  0     0  0
  9 17  1  0     0  0
 10 18  1  0     0  0
M  END
