Propene, ID: C115071
  NIST    04042217083D 1   1.00000     0.00000      
NIST Chemistry WebBook
  9  8  0     0  0              1 V2000
    0.6941    0.9985    0.8681 C   0  0  0  0  0  0           0  0  0
    1.7568    1.9782    1.1864 C   0  0  0  0  0  0           0  0  0
    3.0508    1.6797    1.1820 C   0  0  0  0  0  0           0  0  0
    0.0000    0.8944    1.7128 H   0  0  0  0  0  0           0  0  0
    0.1099    1.3323    0.0000 H   0  0  0  0  0  0           0  0  0
    1.0889    0.0000    0.6381 H   0  0  0  0  0  0           0  0  0
    1.4145    2.9905    1.4321 H   0  0  0  0  0  0           0  0  0
    3.8210    2.4077    1.4170 H   0  0  0  0  0  0           0  0  0
    3.4325    0.6904    0.9445 H   0  0  0  0  0  0           0  0  0
  1  2  1  0     0  0
  1  4  1  0     0  0
  1  5  1  0     0  0
  1  6  1  0     0  0
  2  3  2  0     0  0
  2  7  1  0     0  0
  3  8  1  0     0  0
  3  9  1  0     0  0
M  END
