Ethanol, 1,1-dimethyl-, ID: C75650
  NIST    04042217093D 1   1.00000     0.00000      
NIST Chemistry WebBook
 15 14  0     0  0              1 V2000
    0.7822    1.1607    2.6583 C   0  0  0  0  0  0           0  0  0
    1.7186    1.7789    1.6117 C   0  0  0  0  0  0           0  0  0
    2.8033    2.6096    2.3028 C   0  0  0  0  0  0           0  0  0
    2.3620    0.6673    0.7721 C   0  0  0  0  0  0           0  0  0
    1.0069    2.6876    0.7777 O   0  0  0  0  0  0           0  0  0
    0.0000    0.5464    2.1923 H   0  0  0  0  0  0           0  0  0
    1.3401    0.5157    3.3488 H   0  0  0  0  0  0           0  0  0
    0.2830    1.9344    3.2563 H   0  0  0  0  0  0           0  0  0
    3.4061    1.9807    2.9705 H   0  0  0  0  0  0           0  0  0
    3.4825    3.0710    1.5741 H   0  0  0  0  0  0           0  0  0
    2.3686    3.4173    2.9061 H   0  0  0  0  0  0           0  0  0
    3.0243    1.0804    0.0000 H   0  0  0  0  0  0           0  0  0
    2.9629    0.0000    1.4029 H   0  0  0  0  0  0           0  0  0
    1.6072    0.0511    0.2653 H   0  0  0  0  0  0           0  0  0
    0.3323    2.1820    0.3446 H   0  0  0  0  0  0           0  0  0
  1  2  1  0     0  0
  1  6  1  0     0  0
  1  7  1  0     0  0
  1  8  1  0     0  0
  2  3  1  0     0  0
  2  4  1  0     0  0
  2  5  1  0     0  0
  3  9  1  0     0  0
  3 10  1  0     0  0
  3 11  1  0     0  0
  4 12  1  0     0  0
  4 13  1  0     0  0
  4 14  1  0     0  0
  5 15  1  0     0  0
M  END
