Benzene, tert-butyl-, ID: C98066
  NIST    04042217093D 1   1.00000     0.00000      
NIST Chemistry WebBook
 24 24  0     0  0              1 V2000
    5.1594    0.9273    2.4815 C   0  0  0  0  0  0           0  0  0
    3.8448    1.1925    2.1181 C   0  0  0  0  0  0           0  0  0
    5.8658    1.8368    3.2609 C   0  0  0  0  0  0           0  0  0
    3.2160    2.3687    2.5331 C   0  0  0  0  0  0           0  0  0
    3.9371    3.2801    3.3079 C   0  0  0  0  0  0           0  0  0
    1.7955    2.6770    2.1020 C   0  0  0  0  0  0           0  0  0
    5.2516    3.0149    3.6716 C   0  0  0  0  0  0           0  0  0
    1.0803    3.5462    3.1377 C   0  0  0  0  0  0           0  0  0
    1.8690    3.4317    0.7717 C   0  0  0  0  0  0           0  0  0
    0.9851    1.3940    1.9115 C   0  0  0  0  0  0           0  0  0
    5.6386    0.0000    2.1516 H   0  0  0  0  0  0           0  0  0
    3.2826    0.4771    1.4985 H   0  0  0  0  0  0           0  0  0
    6.9010    1.6272    3.5484 H   0  0  0  0  0  0           0  0  0
    3.4474    4.2129    3.6274 H   0  0  0  0  0  0           0  0  0
    5.8038    3.7368    4.2819 H   0  0  0  0  0  0           0  0  0
    0.9189    3.0012    4.0768 H   0  0  0  0  0  0           0  0  0
    0.1001    3.8754    2.7700 H   0  0  0  0  0  0           0  0  0
    1.6708    4.4453    3.3787 H   0  0  0  0  0  0           0  0  0
    0.8675    3.6886    0.4020 H   0  0  0  0  0  0           0  0  0
    2.3638    2.8279    0.0000 H   0  0  0  0  0  0           0  0  0
    2.4349    4.3666    0.8764 H   0  0  0  0  0  0           0  0  0
    0.8243    0.8753    2.8655 H   0  0  0  0  0  0           0  0  0
    1.5048    0.6908    1.2404 H   0  0  0  0  0  0           0  0  0
    0.0000    1.6083    1.4777 H   0  0  0  0  0  0           0  0  0
  1  2  2  0     0  0
  3  1  1  0     0  0
  1 11  1  0     0  0
  2  4  1  0     0  0
  2 12  1  0     0  0
  7  3  2  0     0  0
  3 13  1  0     0  0
  4  5  2  0     0  0
  4  6  1  0     0  0
  5  7  1  0     0  0
  5 14  1  0     0  0
  6  8  1  0     0  0
  6  9  1  0     0  0
  6 10  1  0     0  0
  7 15  1  0     0  0
  8 16  1  0     0  0
  8 17  1  0     0  0
  8 18  1  0     0  0
  9 19  1  0     0  0
  9 20  1  0     0  0
  9 21  1  0     0  0
 10 22  1  0     0  0
 10 23  1  0     0  0
 10 24  1  0     0  0
M  END
