Benzene, ID: C71432
  NIST    04042217093D 1   1.00000     0.00000      
NIST Chemistry WebBook
 12 12  0     0  0              1 V2000
    3.2883    3.3891    0.2345 C   0  0  0  0  0  0           0  0  0
    1.9047    3.5333    0.2237 C   0  0  0  0  0  0           0  0  0
    3.8560    2.1213    0.1612 C   0  0  0  0  0  0           0  0  0
    1.0888    2.4099    0.1396 C   0  0  0  0  0  0           0  0  0
    3.0401    0.9977    0.0771 C   0  0  0  0  0  0           0  0  0
    1.6565    1.1421    0.0663 C   0  0  0  0  0  0           0  0  0
    3.9303    4.2734    0.3007 H   0  0  0  0  0  0           0  0  0
    1.4582    4.5312    0.2815 H   0  0  0  0  0  0           0  0  0
    4.9448    2.0077    0.1699 H   0  0  0  0  0  0           0  0  0
    0.0000    2.5234    0.1311 H   0  0  0  0  0  0           0  0  0
    3.4870    0.0000    0.0197 H   0  0  0  0  0  0           0  0  0
    1.0145    0.2578    0.0000 H   0  0  0  0  0  0           0  0  0
  2  1  2  0     0  0
  1  3  1  0     0  0
  1  7  1  0     0  0
  4  2  1  0     0  0
  2  8  1  0     0  0
  3  5  2  0     0  0
  3  9  1  0     0  0
  6  4  2  0     0  0
  4 10  1  0     0  0
  5  6  1  0     0  0
  5 11  1  0     0  0
  6 12  1  0     0  0
M  END
