Cyclopentene, ID: C142290
  NIST    04042217083D 1   1.00000     0.00000      
NIST Chemistry WebBook
 13 13  0     0  0              1 V2000
    0.7026    2.1487    1.2803 C   0  0  0  0  0  0           0  0  0
    1.9143    3.0520    1.0028 C   0  0  0  0  0  0           0  0  0
    3.1024    2.1512    1.1173 C   0  0  0  0  0  0           0  0  0
    2.7505    0.8940    1.4098 C   0  0  0  0  0  0           0  0  0
    1.2685    0.7440    1.5398 C   0  0  0  0  0  0           0  0  0
    0.1217    2.5129    2.1461 H   0  0  0  0  0  0           0  0  0
    0.0000    2.1470    0.4281 H   0  0  0  0  0  0           0  0  0
    1.8684    3.5149    0.0000 H   0  0  0  0  0  0           0  0  0
    1.9848    3.8877    1.7230 H   0  0  0  0  0  0           0  0  0
    4.1143    2.5269    0.9699 H   0  0  0  0  0  0           0  0  0
    3.4198    0.0455    1.5471 H   0  0  0  0  0  0           0  0  0
    0.8848    0.0000    0.8178 H   0  0  0  0  0  0           0  0  0
    0.9989    0.3651    2.5427 H   0  0  0  0  0  0           0  0  0
  1  2  1  0     0  0
  5  1  1  0     0  0
  1  6  1  0     0  0
  1  7  1  0     0  0
  2  3  1  0     0  0
  2  8  1  0     0  0
  2  9  1  0     0  0
  3  4  2  0     0  0
  3 10  1  0     0  0
  4  5  1  0     0  0
  4 11  1  0     0  0
  5 12  1  0     0  0
  5 13  1  0     0  0
M  END
