1-Butanol, ID: C71363
  NIST    04042217093D 1   1.00000     0.00000      
NIST Chemistry WebBook
 15 14  0     0  0              1 V2000
    2.9651    2.0464    2.4042 C   0  0  0  0  0  0           0  0  0
    2.3281    2.7103    1.1934 C   0  0  0  0  0  0           0  0  0
    0.8652    2.3158    0.9860 C   0  0  0  0  0  0           0  0  0
    3.3109    0.5952    2.1559 C   0  0  0  0  0  0           0  0  0
    0.0000    2.7697    1.9922 O   0  0  0  0  0  0           0  0  0
    3.8836    2.6000    2.6826 H   0  0  0  0  0  0           0  0  0
    2.2886    2.1307    3.2779 H   0  0  0  0  0  0           0  0  0
    2.8987    2.4514    0.2796 H   0  0  0  0  0  0           0  0  0
    2.4074    3.8120    1.2923 H   0  0  0  0  0  0           0  0  0
    0.5089    2.6739    0.0000 H   0  0  0  0  0  0           0  0  0
    0.7244    1.2206    1.0177 H   0  0  0  0  0  0           0  0  0
    2.4210    0.0000    1.9086 H   0  0  0  0  0  0           0  0  0
    3.7712    0.1403    3.0423 H   0  0  0  0  0  0           0  0  0
    4.0193    0.4827    1.3240 H   0  0  0  0  0  0           0  0  0
    0.1229    3.7075    2.0732 H   0  0  0  0  0  0           0  0  0
  1  2  1  0     0  0
  1  4  1  0     0  0
  1  6  1  0     0  0
  1  7  1  0     0  0
  2  3  1  0     0  0
  2  8  1  0     0  0
  2  9  1  0     0  0
  3  5  1  0     0  0
  3 10  1  0     0  0
  3 11  1  0     0  0
  4 12  1  0     0  0
  4 13  1  0     0  0
  4 14  1  0     0  0
  5 15  1  0     0  0
M  END
