Pentane, ID: C109660
  NIST    04042217083D 1   1.00000     0.00000      
NIST Chemistry WebBook
 17 16  0     0  0              1 V2000
    3.7280    2.4135    2.8751 C   0  0  0  0  0  0           0  0  0
    2.5997    1.4666    2.4988 C   0  0  0  0  0  0           0  0  0
    1.8538    1.9510    1.2659 C   0  0  0  0  0  0           0  0  0
    4.4698    1.9317    4.1013 C   0  0  0  0  0  0           0  0  0
    0.7349    1.0066    0.8889 C   0  0  0  0  0  0           0  0  0
    3.3234    3.4299    3.0526 H   0  0  0  0  0  0           0  0  0
    4.4308    2.5184    2.0246 H   0  0  0  0  0  0           0  0  0
    1.8961    1.3604    3.3490 H   0  0  0  0  0  0           0  0  0
    3.0039    0.4497    2.3206 H   0  0  0  0  0  0           0  0  0
    2.5589    2.0599    0.4178 H   0  0  0  0  0  0           0  0  0
    1.4479    2.9664    1.4462 H   0  0  0  0  0  0           0  0  0
    5.2821    2.6183    4.3713 H   0  0  0  0  0  0           0  0  0
    3.8049    1.8514    4.9716 H   0  0  0  0  0  0           0  0  0
    4.9169    0.9415    3.9412 H   0  0  0  0  0  0           0  0  0
    0.0000    0.9059    1.6988 H   0  0  0  0  0  0           0  0  0
    1.1125    0.0000    0.6654 H   0  0  0  0  0  0           0  0  0
    0.1970    1.3600    0.0000 H   0  0  0  0  0  0           0  0  0
  1  2  1  0     0  0
  1  4  1  0     0  0
  1  6  1  0     0  0
  1  7  1  0     0  0
  2  3  1  0     0  0
  2  8  1  0     0  0
  2  9  1  0     0  0
  3  5  1  0     0  0
  3 10  1  0     0  0
  3 11  1  0     0  0
  4 12  1  0     0  0
  4 13  1  0     0  0
  4 14  1  0     0  0
  5 15  1  0     0  0
  5 16  1  0     0  0
  5 17  1  0     0  0
M  END
