Propane, 1,2-dichloro-, ID: C78875
  NIST    04042217093D 1   1.00000     0.00000      
NIST Chemistry WebBook
 11 10  0     0  0              1 V2000
    1.5857    0.7170    1.2847 C   0  0  0  0  0  0           0  0  0
    2.3643    1.9262    0.8184 C   0  0  0  0  0  0           0  0  0
    2.7868    2.8222    1.9556 C   0  0  0  0  0  0           0  0  0
    3.8413    1.3266    0.0000 Cl  0  0  0  0  0  0           0  0  0
    0.0000    1.2481    1.8866 Cl  0  0  0  0  0  0           0  0  0
    2.1101    0.1783    2.0943 H   0  0  0  0  0  0           0  0  0
    1.4272    0.0000    0.4595 H   0  0  0  0  0  0           0  0  0
    1.7754    2.4966    0.0636 H   0  0  0  0  0  0           0  0  0
    3.3361    3.6979    1.5879 H   0  0  0  0  0  0           0  0  0
    3.4388    2.2967    2.6661 H   0  0  0  0  0  0           0  0  0
    1.9096    3.1820    2.5110 H   0  0  0  0  0  0           0  0  0
  1  2  1  0     0  0
  1  5  1  0     0  0
  1  6  1  0     0  0
  1  7  1  0     0  0
  2  3  1  0     0  0
  2  4  1  0     0  0
  2  8  1  0     0  0
  3  9  1  0     0  0
  3 10  1  0     0  0
  3 11  1  0     0  0
M  END
