Pentane, 1-chloro-, ID: C543599
  NIST    04042217093D 1   1.00000     0.00000      
NIST Chemistry WebBook
 17 16  0     0  0              1 V2000
    3.1981    1.9337    3.7459 C   0  0  0  0  0  0           0  0  0
    2.8751    1.5570    2.3093 C   0  0  0  0  0  0           0  0  0
    1.3916    1.2787    2.1296 C   0  0  0  0  0  0           0  0  0
    4.6754    2.1761    3.9454 C   0  0  0  0  0  0           0  0  0
    1.0707    0.9002    0.7015 C   0  0  0  0  0  0           0  0  0
    5.5610    0.6391    3.7652 Cl  0  0  0  0  0  0           0  0  0
    2.6369    2.8454    4.0328 H   0  0  0  0  0  0           0  0  0
    2.8513    1.1374    4.4348 H   0  0  0  0  0  0           0  0  0
    3.1936    2.3675    1.6232 H   0  0  0  0  0  0           0  0  0
    3.4696    0.6670    2.0164 H   0  0  0  0  0  0           0  0  0
    1.0740    0.4689    2.8164 H   0  0  0  0  0  0           0  0  0
    0.8025    2.1690    2.4272 H   0  0  0  0  0  0           0  0  0
    5.0809    2.8943    3.2109 H   0  0  0  0  0  0           0  0  0
    4.8890    2.5746    4.9525 H   0  0  0  0  0  0           0  0  0
    1.6167    0.0000    0.3889 H   0  0  0  0  0  0           0  0  0
    1.3369    1.7023    0.0000 H   0  0  0  0  0  0           0  0  0
    0.0000    0.6955    0.5745 H   0  0  0  0  0  0           0  0  0
  1  2  1  0     0  0
  1  4  1  0     0  0
  1  7  1  0     0  0
  1  8  1  0     0  0
  2  3  1  0     0  0
  2  9  1  0     0  0
  2 10  1  0     0  0
  3  5  1  0     0  0
  3 11  1  0     0  0
  3 12  1  0     0  0
  4  6  1  0     0  0
  4 13  1  0     0  0
  4 14  1  0     0  0
  5 15  1  0     0  0
  5 16  1  0     0  0
  5 17  1  0     0  0
M  END
