Heptanal, ID: C111717
  NIST    04042217083D 1   1.00000     0.00000      
NIST Chemistry WebBook
 22 21  0     0  0              1 V2000
    3.1005    1.2271    4.5103 C   0  0  0  0  0  0           0  0  0
    2.8602    2.5454    3.7905 C   0  0  0  0  0  0           0  0  0
    1.4075    2.7182    3.3692 C   0  0  0  0  0  0           0  0  0
    4.5499    1.0634    4.9315 C   0  0  0  0  0  0           0  0  0
    1.0849    1.9875    2.0734 C   0  0  0  0  0  0           0  0  0
    4.9802    1.8664    6.1322 C   0  0  0  0  0  0           0  0  0
    1.8763    2.5377    0.9075 C   0  0  0  0  0  0           0  0  0
    4.2307    2.4204    6.9026 O   0  0  0  0  0  0           0  0  0
    2.8193    0.3846    3.8463 H   0  0  0  0  0  0           0  0  0
    2.4343    1.1483    5.3929 H   0  0  0  0  0  0           0  0  0
    3.5086    2.6176    2.8865 H   0  0  0  0  0  0           0  0  0
    3.1590    3.3848    4.4479 H   0  0  0  0  0  0           0  0  0
    0.7319    2.3672    4.1744 H   0  0  0  0  0  0           0  0  0
    1.1886    3.7974    3.2444 H   0  0  0  0  0  0           0  0  0
    4.7538    0.0000    5.1712 H   0  0  0  0  0  0           0  0  0
    5.2225    1.3142    4.0861 H   0  0  0  0  0  0           0  0  0
    1.2904    0.9043    2.1906 H   0  0  0  0  0  0           0  0  0
    0.0000    2.0635    1.8647 H   0  0  0  0  0  0           0  0  0
    6.0690    1.9198    6.3043 H   0  0  0  0  0  0           0  0  0
    1.7297    1.9402    0.0000 H   0  0  0  0  0  0           0  0  0
    1.5892    3.5712    0.6742 H   0  0  0  0  0  0           0  0  0
    2.9540    2.5426    1.1428 H   0  0  0  0  0  0           0  0  0
  1  2  1  0     0  0
  1  4  1  0     0  0
  1  9  1  0     0  0
  1 10  1  0     0  0
  2  3  1  0     0  0
  2 11  1  0     0  0
  2 12  1  0     0  0
  3  5  1  0     0  0
  3 13  1  0     0  0
  3 14  1  0     0  0
  4  6  1  0     0  0
  4 15  1  0     0  0
  4 16  1  0     0  0
  5  7  1  0     0  0
  5 17  1  0     0  0
  5 18  1  0     0  0
  6  8  2  0     0  0
  6 19  1  0     0  0
  7 20  1  0     0  0
  7 21  1  0     0  0
  7 22  1  0     0  0
M  END
