1-Octanol, ID: C111875
 OpenBabel09021016073D
NIST Chemistry WebBook
 27 26  0  0  0  0  0  0  0  0999 V2000
    3.8860    3.3306    1.4490 C   0  0  0  0  0
    5.1519    3.3918    2.3055 C   0  0  0  0  0
    6.0114    2.1422    2.1090 C   0  0  0  0  0
    3.0243    4.5817    1.6305 C   0  0  0  0  0
    7.2613    2.1779    2.9861 C   0  0  0  0  0
    1.7474    4.5002    0.7944 C   0  0  0  0  0
    8.1301    0.9452    2.7708 C   0  0  0  0  0
    0.8899    5.7438    0.9623 C   0  0  0  0  0
    9.2759    1.0096    3.6084 O   0  0  0  0  0
    4.1612    3.2260    0.3921 H   0  0  0  0  0
    3.3032    2.4416    1.7203 H   0  0  0  0  0
    5.7334    4.2830    2.0408 H   0  0  0  0  0
    4.8757    3.4871    3.3622 H   0  0  0  0  0
    6.3042    2.0611    1.0549 H   0  0  0  0  0
    5.4223    1.2486    2.3500 H   0  0  0  0  0
    2.7634    4.6984    2.6894 H   0  0  0  0  0
    3.6000    5.4690    1.3397 H   0  0  0  0  0
    6.9790    2.2460    4.0441 H   0  0  0  0  0
    7.8509    3.0783    2.7740 H   0  0  0  0  0
    2.0022    4.3797   -0.2647 H   0  0  0  0  0
    1.1651    3.6203    1.0903 H   0  0  0  0  0
    8.4740    0.8889    1.7333 H   0  0  0  0  0
    7.5829    0.0253    3.0010 H   0  0  0  0  0
    1.4295    6.6397    0.6374 H   0  0  0  0  0
   -0.0213    5.6600    0.3613 H   0  0  0  0  0
    0.5954    5.8802    2.0081 H   0  0  0  0  0
    8.9643    1.0124    4.5300 H   0  0  0  0  0
  1  2  1  0  0  0
  1  4  1  0  0  0
  1 10  1  0  0  0
  1 11  1  0  0  0
  2  3  1  0  0  0
  2 12  1  0  0  0
  2 13  1  0  0  0
  3  5  1  0  0  0
  3 14  1  0  0  0
  3 15  1  0  0  0
  4  6  1  0  0  0
  4 16  1  0  0  0
  4 17  1  0  0  0
  5  7  1  0  0  0
  5 18  1  0  0  0
  5 19  1  0  0  0
  6  8  1  0  0  0
  6 20  1  0  0  0
  6 21  1  0  0  0
  7  9  1  0  0  0
  7 22  1  0  0  0
  7 23  1  0  0  0
  8 24  1  0  0  0
  8 25  1  0  0  0
  8 26  1  0  0  0
  9 27  1  0  0  0
M  END
