14454 2,2-DIMETHYL-1-BUTANOL from www.chemspider.com
  Marvin  12300703363D          

 21 20  0  0  0  0            999 V2000
   -2.2353    1.2601    0.3131 O   0  0  0  0  0  0  0  0  0  0  0  0
   -0.2333   -0.2442    0.2170 C   0  0  2  0  0  0  0  0  0  0  0  0
    1.3391   -0.2154    0.1811 C   0  0  0  0  0  0  0  0  0  0  0  0
   -0.8121    1.2091    0.2500 C   0  0  0  0  0  0  0  0  0  0  0  0
   -0.6966   -0.9953    1.5090 C   0  0  0  0  0  0  0  0  0  0  0  0
   -0.7932   -1.0141   -1.0222 C   0  0  0  0  0  0  0  0  0  0  0  0
    2.0326    0.4777   -1.0199 C   0  0  0  0  0  0  0  0  0  0  0  0
    1.7156    0.2726    1.0850 H   0  0  0  0  0  0  0  0  0  0  0  0
    1.7227   -1.2397    0.2139 H   0  0  0  0  0  0  0  0  0  0  0  0
   -0.4254    1.7620    1.1101 H   0  0  0  0  0  0  0  0  0  0  0  0
   -0.5359    1.7663   -0.6462 H   0  0  0  0  0  0  0  0  0  0  0  0
   -0.3422   -0.4965    2.4142 H   0  0  0  0  0  0  0  0  0  0  0  0
   -0.3255   -2.0225    1.5353 H   0  0  0  0  0  0  0  0  0  0  0  0
   -1.7861   -1.0493    1.5775 H   0  0  0  0  0  0  0  0  0  0  0  0
   -0.3877   -2.0271   -1.0776 H   0  0  0  0  0  0  0  0  0  0  0  0
   -1.8813   -1.0995   -0.9883 H   0  0  0  0  0  0  0  0  0  0  0  0
   -0.5508   -0.5099   -1.9588 H   0  0  0  0  0  0  0  0  0  0  0  0
    3.1175    0.4191   -0.9183 H   0  0  0  0  0  0  0  0  0  0  0  0
    1.7687    1.5337   -1.0776 H   0  0  0  0  0  0  0  0  0  0  0  0
    1.7678   -0.0005   -1.9630 H   0  0  0  0  0  0  0  0  0  0  0  0
   -2.4587    2.2133    0.2659 H   0  0  0  0  0  0  0  0  0  0  0  0
  1  4  1  0  0  0  0
  1 21  1  0  0  0  0
  2  3  1  0  0  0  0
  2  4  1  0  0  0  0
  2  5  1  0  0  0  0
  2  6  1  0  0  0  0
  3  7  1  0  0  0  0
  3  8  1  0  0  0  0
  3  9  1  0  0  0  0
  4 10  1  0  0  0  0
  4 11  1  0  0  0  0
  5 12  1  0  0  0  0
  5 13  1  0  0  0  0
  5 14  1  0  0  0  0
  6 15  1  0  0  0  0
  6 16  1  0  0  0  0
  6 17  1  0  0  0  0
  7 18  1  0  0  0  0
  7 19  1  0  0  0  0
  7 20  1  0  0  0  0
M  END
$$$$
