2-Hexanol, (R)-, ID: C26549246
  NIST    04042217083D 1   1.00000     0.00000      
NIST Chemistry WebBook
 21 20  0     0  0              1 V2000
    1.0121    1.2553    1.6899 C   0  0  0  0  0  0           0  0  0
    1.9209    2.3552    1.1879 C   0  0  0  0  0  0           0  0  0
    3.3177    2.2809    1.7831 C   0  0  0  0  0  0           0  0  0
    4.1330    1.1223    1.2280 C   0  0  0  0  0  0           0  0  0
    5.5924    1.2158    1.6991 C   0  0  0  0  0  0           0  0  0
    6.2840    2.4309    1.0806 C   0  0  0  0  0  0           0  0  0
    6.2178    0.0000    1.3259 O   0  0  0  0  0  0           0  0  0
    1.3815    0.2601    1.4072 H   0  0  0  0  0  0           0  0  0
    0.9244    1.2704    2.7845 H   0  0  0  0  0  0           0  0  0
    0.0000    1.3572    1.2779 H   0  0  0  0  0  0           0  0  0
    1.4758    3.3400    1.4326 H   0  0  0  0  0  0           0  0  0
    1.9787    2.3220    0.0816 H   0  0  0  0  0  0           0  0  0
    3.8671    3.2282    1.5753 H   0  0  0  0  0  0           0  0  0
    3.2555    2.2076    2.8872 H   0  0  0  0  0  0           0  0  0
    3.6922    0.1557    1.5453 H   0  0  0  0  0  0           0  0  0
    4.0943    1.1189    0.1199 H   0  0  0  0  0  0           0  0  0
    5.6194    1.2978    2.8141 H   0  0  0  0  0  0           0  0  0
    6.4365    2.3118    0.0000 H   0  0  0  0  0  0           0  0  0
    5.6584    3.3263    1.2314 H   0  0  0  0  0  0           0  0  0
    7.2636    2.6228    1.5352 H   0  0  0  0  0  0           0  0  0
    7.1394    0.1001    1.5229 H   0  0  0  0  0  0           0  0  0
  1  2  1  0     0  0
  1  8  1  0     0  0
  1  9  1  0     0  0
  1 10  1  0     0  0
  2  3  1  0     0  0
  2 11  1  0     0  0
  2 12  1  0     0  0
  3  4  1  0     0  0
  3 13  1  0     0  0
  3 14  1  0     0  0
  4  5  1  0     0  0
  4 15  1  0     0  0
  4 16  1  0     0  0
  5  6  1  0     0  0
  5  7  1  0     0  0
  5 17  1  0     0  0
  6 18  1  0     0  0
  6 19  1  0     0  0
  6 20  1  0     0  0
  7 21  1  0     0  0
M  END
