1-Pentene, 2-methyl-, ID: C763291
  NIST    04042217093D 1   1.00000     0.00000      
NIST Chemistry WebBook
 18 17  0     0  0              1 V2000
    2.5914    2.1471    3.1259 C   0  0  0  0  0  0           0  0  0
    2.1145    1.3661    1.9409 C   0  0  0  0  0  0           0  0  0
    3.1500    1.2462    4.2210 C   0  0  0  0  0  0           0  0  0
    0.7346    0.8193    2.0247 C   0  0  0  0  0  0           0  0  0
    2.8850    1.1765    0.8697 C   0  0  0  0  0  0           0  0  0
    4.5174    0.7020    3.8742 C   0  0  0  0  0  0           0  0  0
    3.3603    2.8832    2.8165 H   0  0  0  0  0  0           0  0  0
    1.7484    2.7439    3.5279 H   0  0  0  0  0  0           0  0  0
    2.4474    0.4114    4.4166 H   0  0  0  0  0  0           0  0  0
    3.2064    1.8168    5.1690 H   0  0  0  0  0  0           0  0  0
    0.6205    0.1839    2.9142 H   0  0  0  0  0  0           0  0  0
    0.0000    1.6325    2.1024 H   0  0  0  0  0  0           0  0  0
    0.4688    0.2145    1.1480 H   0  0  0  0  0  0           0  0  0
    2.5579    0.6141    0.0000 H   0  0  0  0  0  0           0  0  0
    3.8944    1.5717    0.7954 H   0  0  0  0  0  0           0  0  0
    4.5042    0.1696    2.9126 H   0  0  0  0  0  0           0  0  0
    5.2629    1.5040    3.7900 H   0  0  0  0  0  0           0  0  0
    4.8740    0.0000    4.6382 H   0  0  0  0  0  0           0  0  0
  1  2  1  0     0  0
  1  3  1  0     0  0
  1  7  1  0     0  0
  1  8  1  0     0  0
  2  4  1  0     0  0
  2  5  2  0     0  0
  3  6  1  0     0  0
  3  9  1  0     0  0
  3 10  1  0     0  0
  4 11  1  0     0  0
  4 12  1  0     0  0
  4 13  1  0     0  0
  5 14  1  0     0  0
  5 15  1  0     0  0
  6 16  1  0     0  0
  6 17  1  0     0  0
  6 18  1  0     0  0
M  END
