Anthracene, 2-methyl-, ID: C613127
  NIST    04042217093D 1   1.00000     0.00000      
NIST Chemistry WebBook
 27 29  0     0  0              1 V2000
    4.0154    1.4195    0.8734 C   0  0  0  0  0  0           0  0  0
    3.2756    1.2800    2.1547 C   0  0  0  0  0  0           0  0  0
    3.8158    1.7331    3.3238 C   0  0  0  0  0  0           0  0  0
    1.9940    0.6461    2.1545 C   0  0  0  0  0  0           0  0  0
    3.1090    1.5867    4.5597 C   0  0  0  0  0  0           0  0  0
    1.3010    0.4870    3.3127 C   0  0  0  0  0  0           0  0  0
    1.8382    0.9530    4.5568 C   0  0  0  0  0  0           0  0  0
    3.6500    2.0512    5.7616 C   0  0  0  0  0  0           0  0  0
    1.1381    0.7974    5.7554 C   0  0  0  0  0  0           0  0  0
    2.9503    1.8973    6.9611 C   0  0  0  0  0  0           0  0  0
    1.6780    1.2603    6.9581 C   0  0  0  0  0  0           0  0  0
    3.4854    2.3700    8.2040 C   0  0  0  0  0  0           0  0  0
    0.9767    1.1055    8.1984 C   0  0  0  0  0  0           0  0  0
    2.7880    2.2103    9.3603 C   0  0  0  0  0  0           0  0  0
    1.5171    1.5662    9.3582 C   0  0  0  0  0  0           0  0  0
    3.3648    1.2796    0.0000 H   0  0  0  0  0  0           0  0  0
    4.8176    0.6713    0.8103 H   0  0  0  0  0  0           0  0  0
    4.4806    2.4101    0.7834 H   0  0  0  0  0  0           0  0  0
    4.7984    2.2199    3.3359 H   0  0  0  0  0  0           0  0  0
    1.5833    0.2918    1.2021 H   0  0  0  0  0  0           0  0  0
    0.3192    0.0000    3.3209 H   0  0  0  0  0  0           0  0  0
    4.6318    2.5403    5.7632 H   0  0  0  0  0  0           0  0  0
    0.1566    0.3075    5.7524 H   0  0  0  0  0  0           0  0  0
    4.4648    2.8613    8.1963 H   0  0  0  0  0  0           0  0  0
    0.0000    0.6090    8.1867 H   0  0  0  0  0  0           0  0  0
    3.1897    2.5715   10.3124 H   0  0  0  0  0  0           0  0  0
    0.9886    1.4498   10.3098 H   0  0  0  0  0  0           0  0  0
  1  2  1  0     0  0
  1 16  1  0     0  0
  1 17  1  0     0  0
  1 18  1  0     0  0
  3  2  2  0     0  0
  2  4  1  0     0  0
  5  3  1  0     0  0
  3 19  1  0     0  0
  4  6  2  0     0  0
  4 20  1  0     0  0
  5  7  2  0     0  0
  8  5  1  0     0  0
  6  7  1  0     0  0
  6 21  1  0     0  0
  7  9  1  0     0  0
 10  8  2  0     0  0
  8 22  1  0     0  0
  9 11  2  0     0  0
  9 23  1  0     0  0
 10 11  1  0     0  0
 12 10  1  0     0  0
 11 13  1  0     0  0
 14 12  2  0     0  0
 12 24  1  0     0  0
 13 15  2  0     0  0
 13 25  1  0     0  0
 15 14  1  0     0  0
 14 26  1  0     0  0
 15 27  1  0     0  0
M  END
