2-Octanone, ID: C111137
  NIST    04042217083D 1   1.00000     0.00000      
NIST Chemistry WebBook
 25 24  0     0  0              1 V2000
    2.0963    2.2166    2.9104 C   0  0  0  0  0  0           0  0  0
    2.6630    1.6175    4.1850 C   0  0  0  0  0  0           0  0  0
    3.2665    2.6942    5.0734 C   0  0  0  0  0  0           0  0  0
    1.5380    1.2027    1.9357 C   0  0  0  0  0  0           0  0  0
    3.8226    2.0991    6.3566 C   0  0  0  0  0  0           0  0  0
    0.8792    1.8013    0.7193 C   0  0  0  0  0  0           0  0  0
    1.6064    0.0000    2.1004 O   0  0  0  0  0  0           0  0  0
    4.4890    3.1605    7.2177 C   0  0  0  0  0  0           0  0  0
    5.0296    2.5714    8.5013 C   0  0  0  0  0  0           0  0  0
    1.2920    2.9400    3.1552 H   0  0  0  0  0  0           0  0  0
    2.8763    2.8041    2.3837 H   0  0  0  0  0  0           0  0  0
    1.8700    1.0709    4.7334 H   0  0  0  0  0  0           0  0  0
    3.4304    0.8560    3.9391 H   0  0  0  0  0  0           0  0  0
    2.5040    3.4631    5.3123 H   0  0  0  0  0  0           0  0  0
    4.0679    3.2319    4.5271 H   0  0  0  0  0  0           0  0  0
    4.5478    1.2945    6.1197 H   0  0  0  0  0  0           0  0  0
    3.0103    1.6057    6.9277 H   0  0  0  0  0  0           0  0  0
    1.5714    2.4747    0.1974 H   0  0  0  0  0  0           0  0  0
    0.0000    2.3899    1.0119 H   0  0  0  0  0  0           0  0  0
    0.5463    1.0416    0.0000 H   0  0  0  0  0  0           0  0  0
    3.7663    3.9688    7.4468 H   0  0  0  0  0  0           0  0  0
    5.3076    3.6472    6.6504 H   0  0  0  0  0  0           0  0  0
    5.7686    1.7832    8.3054 H   0  0  0  0  0  0           0  0  0
    4.2315    2.1252    9.1096 H   0  0  0  0  0  0           0  0  0
    5.5211    3.3369    9.1154 H   0  0  0  0  0  0           0  0  0
  1  2  1  0     0  0
  1  4  1  0     0  0
  1 10  1  0     0  0
  1 11  1  0     0  0
  2  3  1  0     0  0
  2 12  1  0     0  0
  2 13  1  0     0  0
  3  5  1  0     0  0
  3 14  1  0     0  0
  3 15  1  0     0  0
  4  6  1  0     0  0
  4  7  2  0     0  0
  5  8  1  0     0  0
  5 16  1  0     0  0
  5 17  1  0     0  0
  6 18  1  0     0  0
  6 19  1  0     0  0
  6 20  1  0     0  0
  8  9  1  0     0  0
  8 21  1  0     0  0
  8 22  1  0     0  0
  9 23  1  0     0  0
  9 24  1  0     0  0
  9 25  1  0     0  0
M  END
