6416 3,3-DIMETHYL-2-BUTANONE from www.chemspider.com
  Marvin  12300703363D          

 19 18  0  0  0  0            999 V2000
    1.9767   -0.9192   -0.0000 O   0  0  0  0  0  0  0  0  0  0  0  0
    0.0428    0.3757   -0.0000 C   0  0  2  0  0  0  0  0  0  0  0  0
    0.4487    1.1876    1.2745 C   0  0  0  0  0  0  0  0  0  0  0  0
    0.4487    1.1876   -1.2745 C   0  0  0  0  0  0  0  0  0  0  0  0
   -1.5162    0.2449   -0.0000 C   0  0  0  0  0  0  0  0  0  0  0  0
    0.7495   -0.9223   -0.0000 C   0  0  0  0  0  0  0  0  0  0  0  0
    0.1800   -2.2612    0.0000 C   0  0  0  0  0  0  0  0  0  0  0  0
    0.2015    0.6429    2.1891 H   0  0  0  0  0  0  0  0  0  0  0  0
    1.5201    1.4024    1.3019 H   0  0  0  0  0  0  0  0  0  0  0  0
   -0.0647    2.1514    1.3190 H   0  0  0  0  0  0  0  0  0  0  0  0
    1.5201    1.4024   -1.3019 H   0  0  0  0  0  0  0  0  0  0  0  0
   -0.0647    2.1514   -1.3190 H   0  0  0  0  0  0  0  0  0  0  0  0
    0.2015    0.6429   -2.1891 H   0  0  0  0  0  0  0  0  0  0  0  0
   -2.0187    1.2141   -0.0000 H   0  0  0  0  0  0  0  0  0  0  0  0
   -1.8658   -0.2939    0.8844 H   0  0  0  0  0  0  0  0  0  0  0  0
   -1.8658   -0.2939   -0.8844 H   0  0  0  0  0  0  0  0  0  0  0  0
    0.5066   -2.8041    0.8889 H   0  0  0  0  0  0  0  0  0  0  0  0
    0.5066   -2.8041   -0.8889 H   0  0  0  0  0  0  0  0  0  0  0  0
   -0.9072   -2.3046    0.0000 H   0  0  0  0  0  0  0  0  0  0  0  0
  1  6  2  0  0  0  0
  2  3  1  0  0  0  0
  2  4  1  0  0  0  0
  2  5  1  0  0  0  0
  2  6  1  0  0  0  0
  3  8  1  0  0  0  0
  3  9  1  0  0  0  0
  3 10  1  0  0  0  0
  4 11  1  0  0  0  0
  4 12  1  0  0  0  0
  4 13  1  0  0  0  0
  5 14  1  0  0  0  0
  5 15  1  0  0  0  0
  5 16  1  0  0  0  0
  6  7  1  0  0  0  0
  7 17  1  0  0  0  0
  7 18  1  0  0  0  0
  7 19  1  0  0  0  0
M  END
$$$$
