Pentane, 3-methyl-, ID: C96140
  NIST    04042217093D 1   1.00000     0.00000      
NIST Chemistry WebBook
 20 19  0     0  0              1 V2000
    2.1284    2.6393    1.4703 C   0  0  0  0  0  0           0  0  0
    2.1067    2.1157    2.9080 C   0  0  0  0  0  0           0  0  0
    3.5145    2.0585    3.5074 C   0  0  0  0  0  0           0  0  0
    1.4171    0.7638    2.9936 C   0  0  0  0  0  0           0  0  0
    0.7862    3.1835    1.0336 C   0  0  0  0  0  0           0  0  0
    4.4812    1.1700    2.7569 C   0  0  0  0  0  0           0  0  0
    2.8951    3.4350    1.3786 H   0  0  0  0  0  0           0  0  0
    2.4517    1.8343    0.7798 H   0  0  0  0  0  0           0  0  0
    1.5195    2.8393    3.5280 H   0  0  0  0  0  0           0  0  0
    3.9271    3.0864    3.5594 H   0  0  0  0  0  0           0  0  0
    3.4400    1.7140    4.5586 H   0  0  0  0  0  0           0  0  0
    1.9365    0.0000    2.3977 H   0  0  0  0  0  0           0  0  0
    0.3839    0.8186    2.6247 H   0  0  0  0  0  0           0  0  0
    1.3791    0.4011    4.0292 H   0  0  0  0  0  0           0  0  0
    0.4609    4.0205    1.6661 H   0  0  0  0  0  0           0  0  0
    0.8254    3.5504    0.0000 H   0  0  0  0  0  0           0  0  0
    0.0000    2.4173    1.0790 H   0  0  0  0  0  0           0  0  0
    4.1227    0.1329    2.6989 H   0  0  0  0  0  0           0  0  0
    4.6392    1.5176    1.7268 H   0  0  0  0  0  0           0  0  0
    5.4618    1.1505    3.2497 H   0  0  0  0  0  0           0  0  0
  1  2  1  0     0  0
  1  5  1  0     0  0
  1  7  1  0     0  0
  1  8  1  0     0  0
  2  3  1  0     0  0
  2  4  1  0     0  0
  2  9  1  0     0  0
  3  6  1  0     0  0
  3 10  1  0     0  0
  3 11  1  0     0  0
  4 12  1  0     0  0
  4 13  1  0     0  0
  4 14  1  0     0  0
  5 15  1  0     0  0
  5 16  1  0     0  0
  5 17  1  0     0  0
  6 18  1  0     0  0
  6 19  1  0     0  0
  6 20  1  0     0  0
M  END
