3-Pentanone, ID: C96220
  NIST    04042217093D 1   1.00000     0.00000      
NIST Chemistry WebBook
 16 15  0     0  0              1 V2000
    0.5878    2.2636    0.6781 C   0  0  0  0  0  0           0  0  0
    1.9601    2.8362    0.9549 C   0  0  0  0  0  0           0  0  0
    2.7677    1.9016    1.8398 C   0  0  0  0  0  0           0  0  0
    2.5334    2.0626    3.3261 C   0  0  0  0  0  0           0  0  0
    3.5455    1.0967    1.3662 O   0  0  0  0  0  0           0  0  0
    3.1888    1.0054    4.1821 C   0  0  0  0  0  0           0  0  0
    0.6488    1.2992    0.1572 H   0  0  0  0  0  0           0  0  0
    0.0000    2.9412    0.0457 H   0  0  0  0  0  0           0  0  0
    0.0180    2.1024    1.6035 H   0  0  0  0  0  0           0  0  0
    1.8736    3.8252    1.4464 H   0  0  0  0  0  0           0  0  0
    2.4917    3.0193    0.0000 H   0  0  0  0  0  0           0  0  0
    1.4385    2.0734    3.5039 H   0  0  0  0  0  0           0  0  0
    2.8948    3.0695    3.6173 H   0  0  0  0  0  0           0  0  0
    2.9816    1.1787    5.2459 H   0  0  0  0  0  0           0  0  0
    4.2792    0.9966    4.0547 H   0  0  0  0  0  0           0  0  0
    2.8247    0.0000    3.9339 H   0  0  0  0  0  0           0  0  0
  1  2  1  0     0  0
  1  7  1  0     0  0
  1  8  1  0     0  0
  1  9  1  0     0  0
  2  3  1  0     0  0
  2 10  1  0     0  0
  2 11  1  0     0  0
  3  4  1  0     0  0
  3  5  2  0     0  0
  4  6  1  0     0  0
  4 12  1  0     0  0
  4 13  1  0     0  0
  6 14  1  0     0  0
  6 15  1  0     0  0
  6 16  1  0     0  0
M  END
