2-Pentanol, 4-methyl-, ID: C108112
  NIST    04042217083D 1   1.00000     0.00000      
NIST Chemistry WebBook
 21 20  0     0  0              1 V2000
    2.5467    2.7584    1.0636 C   0  0  0  0  0  0           0  0  0
    3.8869    2.9475    1.7769 C   0  0  0  0  0  0           0  0  0
    1.5466    2.0436    1.9918 C   0  0  0  0  0  0           0  0  0
    4.9652    3.3692    0.7952 C   0  0  0  0  0  0           0  0  0
    3.7520    3.9632    2.9000 C   0  0  0  0  0  0           0  0  0
    1.9600    0.5925    2.2116 C   0  0  0  0  0  0           0  0  0
    0.2388    2.0231    1.4522 O   0  0  0  0  0  0           0  0  0
    2.1483    3.7417    0.7419 H   0  0  0  0  0  0           0  0  0
    2.6887    2.1733    0.1338 H   0  0  0  0  0  0           0  0  0
    4.1653    1.9532    2.2237 H   0  0  0  0  0  0           0  0  0
    1.5353    2.5899    2.9764 H   0  0  0  0  0  0           0  0  0
    5.9322    3.4929    1.2997 H   0  0  0  0  0  0           0  0  0
    5.0989    2.6245    0.0000 H   0  0  0  0  0  0           0  0  0
    4.7212    4.3252    0.3127 H   0  0  0  0  0  0           0  0  0
    4.6494    3.9881    3.5296 H   0  0  0  0  0  0           0  0  0
    3.5884    4.9786    2.5160 H   0  0  0  0  0  0           0  0  0
    2.8908    3.7077    3.5403 H   0  0  0  0  0  0           0  0  0
    1.8905    0.0000    1.2900 H   0  0  0  0  0  0           0  0  0
    1.3364    0.1013    2.9679 H   0  0  0  0  0  0           0  0  0
    3.0084    0.5620    2.5526 H   0  0  0  0  0  0           0  0  0
    0.0000    2.9246    1.2839 H   0  0  0  0  0  0           0  0  0
  1  2  1  0     0  0
  1  3  1  0     0  0
  1  8  1  0     0  0
  1  9  1  0     0  0
  2  4  1  0     0  0
  2  5  1  0     0  0
  2 10  1  0     0  0
  3  6  1  0     0  0
  3  7  1  0     0  0
  3 11  1  0     0  0
  4 12  1  0     0  0
  4 13  1  0     0  0
  4 14  1  0     0  0
  5 15  1  0     0  0
  5 16  1  0     0  0
  5 17  1  0     0  0
  6 18  1  0     0  0
  6 19  1  0     0  0
  6 20  1  0     0  0
  7 21  1  0     0  0
M  END
