Methyl isobutyl ketone, ID: C108101
  NIST    04042217083D 1   1.00000     0.00000      
NIST Chemistry WebBook
 19 18  0     0  0              1 V2000
    2.3844    2.8755    2.8521 C   0  0  0  0  0  0           0  0  0
    2.1620    1.5817    2.0641 C   0  0  0  0  0  0           0  0  0
    3.8318    3.3291    2.7920 C   0  0  0  0  0  0           0  0  0
    2.1296    1.8413    0.5661 C   0  0  0  0  0  0           0  0  0
    0.8627    0.9233    2.5027 C   0  0  0  0  0  0           0  0  0
    4.1857    4.2760    1.6783 C   0  0  0  0  0  0           0  0  0
    4.6547    2.9501    3.6037 O   0  0  0  0  0  0           0  0  0
    1.7235    3.6768    2.4666 H   0  0  0  0  0  0           0  0  0
    2.0873    2.7205    3.9091 H   0  0  0  0  0  0           0  0  0
    3.0046    0.8828    2.2897 H   0  0  0  0  0  0           0  0  0
    2.1072    0.9017    0.0000 H   0  0  0  0  0  0           0  0  0
    1.2440    2.4222    0.2746 H   0  0  0  0  0  0           0  0  0
    3.0152    2.4094    0.2360 H   0  0  0  0  0  0           0  0  0
    0.0000    1.5842    2.3440 H   0  0  0  0  0  0           0  0  0
    0.6779    0.0000    1.9383 H   0  0  0  0  0  0           0  0  0
    0.8830    0.6594    3.5683 H   0  0  0  0  0  0           0  0  0
    5.2502    4.5424    1.6638 H   0  0  0  0  0  0           0  0  0
    3.6075    5.2047    1.7654 H   0  0  0  0  0  0           0  0  0
    3.9358    3.8155    0.7075 H   0  0  0  0  0  0           0  0  0
  1  2  1  0     0  0
  1  3  1  0     0  0
  1  8  1  0     0  0
  1  9  1  0     0  0
  2  4  1  0     0  0
  2  5  1  0     0  0
  2 10  1  0     0  0
  3  6  1  0     0  0
  3  7  2  0     0  0
  4 11  1  0     0  0
  4 12  1  0     0  0
  4 13  1  0     0  0
  5 14  1  0     0  0
  5 15  1  0     0  0
  5 16  1  0     0  0
  6 17  1  0     0  0
  6 18  1  0     0  0
  6 19  1  0     0  0
M  END
