Butane, 1-methoxy-, ID: C628284
  NIST    04042217093D 1   1.00000     0.00000      
NIST Chemistry WebBook
 18 17  0     0  0              1 V2000
    2.2548    1.9822    1.5881 C   0  0  0  0  0  0           0  0  0
    1.0972    1.3579    2.1085 O   0  0  0  0  0  0           0  0  0
    0.9521    1.4378    3.5038 C   0  0  0  0  0  0           0  0  0
    3.5314    1.1732    1.8120 C   0  0  0  0  0  0           0  0  0
    4.7021    1.8116    1.0837 C   0  0  0  0  0  0           0  0  0
    5.9797    1.0327    1.3010 C   0  0  0  0  0  0           0  0  0
    2.3630    3.0120    1.9817 H   0  0  0  0  0  0           0  0  0
    2.0039    2.0508    0.5151 H   0  0  0  0  0  0           0  0  0
    0.0000    0.9337    3.6855 H   0  0  0  0  0  0           0  0  0
    0.9004    2.4762    3.8532 H   0  0  0  0  0  0           0  0  0
    1.7579    0.9182    4.0359 H   0  0  0  0  0  0           0  0  0
    3.3901    0.1301    1.4655 H   0  0  0  0  0  0           0  0  0
    3.7560    1.0965    2.8952 H   0  0  0  0  0  0           0  0  0
    4.8337    2.8577    1.4250 H   0  0  0  0  0  0           0  0  0
    4.4795    1.8787    0.0000 H   0  0  0  0  0  0           0  0  0
    5.8909    0.0000    0.9384 H   0  0  0  0  0  0           0  0  0
    6.2477    0.9823    2.3648 H   0  0  0  0  0  0           0  0  0
    6.8227    1.4949    0.7719 H   0  0  0  0  0  0           0  0  0
  1  2  1  0     0  0
  1  4  1  0     0  0
  1  7  1  0     0  0
  1  8  1  0     0  0
  2  3  1  0     0  0
  3  9  1  0     0  0
  3 10  1  0     0  0
  3 11  1  0     0  0
  4  5  1  0     0  0
  4 12  1  0     0  0
  4 13  1  0     0  0
  5  6  1  0     0  0
  5 14  1  0     0  0
  5 15  1  0     0  0
  6 16  1  0     0  0
  6 17  1  0     0  0
  6 18  1  0     0  0
M  END
