Cyclohexene, ID: C110838
  NIST    04042217083D 1   1.00000     0.00000      
NIST Chemistry WebBook
 16 16  0     0  0              1 V2000
    0.7327    2.1672    3.0056 C   0  0  0  0  0  0           0  0  0
    1.9600    2.0110    3.8871 C   0  0  0  0  0  0           0  0  0
    1.1160    2.7003    1.6332 C   0  0  0  0  0  0           0  0  0
    2.9577    1.0478    3.2616 C   0  0  0  0  0  0           0  0  0
    2.3139    2.0222    1.0709 C   0  0  0  0  0  0           0  0  0
    3.1483    1.2856    1.8062 C   0  0  0  0  0  0           0  0  0
    0.0000    2.8449    3.4839 H   0  0  0  0  0  0           0  0  0
    0.2188    1.1910    2.9038 H   0  0  0  0  0  0           0  0  0
    1.6676    1.6529    4.8926 H   0  0  0  0  0  0           0  0  0
    2.4345    2.9996    4.0453 H   0  0  0  0  0  0           0  0  0
    1.3277    3.7876    1.6860 H   0  0  0  0  0  0           0  0  0
    0.2644    2.5914    0.9335 H   0  0  0  0  0  0           0  0  0
    2.6216    0.0000    3.3987 H   0  0  0  0  0  0           0  0  0
    3.9331    1.1233    3.7812 H   0  0  0  0  0  0           0  0  0
    2.4930    2.1694    0.0000 H   0  0  0  0  0  0           0  0  0
    4.0207    0.8045    1.3495 H   0  0  0  0  0  0           0  0  0
  1  2  1  0     0  0
  1  3  1  0     0  0
  1  7  1  0     0  0
  1  8  1  0     0  0
  2  4  1  0     0  0
  2  9  1  0     0  0
  2 10  1  0     0  0
  3  5  1  0     0  0
  3 11  1  0     0  0
  3 12  1  0     0  0
  6  4  1  0     0  0
  4 13  1  0     0  0
  4 14  1  0     0  0
  5  6  2  0     0  0
  5 15  1  0     0  0
  6 16  1  0     0  0
M  END
