
 OpenBabel07031019483D

 27 26  0  0  0  0  0  0  0  0999 V2000
    3.3869    2.7788    2.1537 C   0  0  0  0  0
    3.1245    4.1149    2.5800 O   0  0  0  0  0
    3.4652    4.3062    3.9527 C   0  0  0  0  0
    3.0088    2.6606    0.6821 C   0  0  0  0  0
    3.1563    5.7507    4.3285 C   0  0  0  0  0
    3.2657    1.2543    0.1469 C   0  0  0  0  0
    3.5050    6.0377    5.7859 C   0  0  0  0  0
    2.8877    1.1369   -1.3208 C   0  0  0  0  0
    3.1893    7.4765    6.1622 C   0  0  0  0  0
    2.7935    2.0807    2.7548 H   0  0  0  0  0
    4.4509    2.5537    2.2903 H   0  0  0  0  0
    4.5315    4.0967    4.0967 H   0  0  0  0  0
    2.8787    3.6191    4.5738 H   0  0  0  0  0
    3.5765    3.3977    0.1006 H   0  0  0  0  0
    1.9522    2.9281    0.5556 H   0  0  0  0  0
    2.0944    5.9541    4.1435 H   0  0  0  0  0
    3.7115    6.4251    3.6648 H   0  0  0  0  0
    2.6883    0.5242    0.7265 H   0  0  0  0  0
    4.3252    0.9984    0.2671 H   0  0  0  0  0
    4.5705    5.8471    5.9585 H   0  0  0  0  0
    2.9441    5.3638    6.4435 H   0  0  0  0  0
    1.8252    1.3524   -1.4703 H   0  0  0  0  0
    3.4697    1.8340   -1.9324 H   0  0  0  0  0
    3.0832    0.1231   -1.6822 H   0  0  0  0  0
    2.1232    7.6906    6.0354 H   0  0  0  0  0
    3.4502    7.6609    7.2095 H   0  0  0  0  0
    3.7570    8.1785    5.5423 H   0  0  0  0  0
  1  2  1  0  0  0
  1  4  1  0  0  0
  1 10  1  0  0  0
  1 11  1  0  0  0
  2  3  1  0  0  0
  3  5  1  0  0  0
  3 12  1  0  0  0
  3 13  1  0  0  0
  4  6  1  0  0  0
  4 14  1  0  0  0
  4 15  1  0  0  0
  5  7  1  0  0  0
  5 16  1  0  0  0
  5 17  1  0  0  0
  6  8  1  0  0  0
  6 18  1  0  0  0
  6 19  1  0  0  0
  7  9  1  0  0  0
  7 20  1  0  0  0
  7 21  1  0  0  0
  8 22  1  0  0  0
  8 23  1  0  0  0
  8 24  1  0  0  0
  9 25  1  0  0  0
  9 26  1  0  0  0
  9 27  1  0  0  0
M  END
