n-Butyl ether, ID: C142961
  NIST    04042217083D 1   1.00000     0.00000      
NIST Chemistry WebBook
 27 26  0     0  0              1 V2000
    3.3965    2.7525    2.1502 C   0  0  0  0  0  0           0  0  0
    3.1322    4.0908    2.5534 O   0  0  0  0  0  0           0  0  0
    3.4435    4.3777    3.8989 C   0  0  0  0  0  0           0  0  0
    2.6918    2.5209    0.8147 C   0  0  0  0  0  0           0  0  0
    4.9324    4.3642    4.2410 C   0  0  0  0  0  0           0  0  0
    1.2243    2.1594    0.9924 C   0  0  0  0  0  0           0  0  0
    5.7237    5.3927    3.4505 C   0  0  0  0  0  0           0  0  0
    1.0521    0.8547    1.7386 C   0  0  0  0  0  0           0  0  0
    7.1854    5.3820    3.8369 C   0  0  0  0  0  0           0  0  0
    3.0314    2.0212    2.9086 H   0  0  0  0  0  0           0  0  0
    4.4906    2.6191    2.0517 H   0  0  0  0  0  0           0  0  0
    2.8902    3.6974    4.5756 H   0  0  0  0  0  0           0  0  0
    3.0149    5.3903    4.0027 H   0  0  0  0  0  0           0  0  0
    3.2134    1.7046    0.2770 H   0  0  0  0  0  0           0  0  0
    2.7804    3.4147    0.1659 H   0  0  0  0  0  0           0  0  0
    5.3581    3.3534    4.0762 H   0  0  0  0  0  0           0  0  0
    5.0422    4.5599    5.3264 H   0  0  0  0  0  0           0  0  0
    0.7362    2.0956    0.0000 H   0  0  0  0  0  0           0  0  0
    0.7020    2.9755    1.5298 H   0  0  0  0  0  0           0  0  0
    5.2955    6.4019    3.6137 H   0  0  0  0  0  0           0  0  0
    5.6164    5.1955    2.3654 H   0  0  0  0  0  0           0  0  0
    1.4218    0.0000    1.1576 H   0  0  0  0  0  0           0  0  0
    1.6180    0.8755    2.6857 H   0  0  0  0  0  0           0  0  0
    0.0000    0.6621    1.9784 H   0  0  0  0  0  0           0  0  0
    7.6480    4.4047    3.6450 H   0  0  0  0  0  0           0  0  0
    7.7528    6.1297    3.2686 H   0  0  0  0  0  0           0  0  0
    7.3255    5.6050    4.9031 H   0  0  0  0  0  0           0  0  0
  1  2  1  0     0  0
  1  4  1  0     0  0
  1 10  1  0     0  0
  1 11  1  0     0  0
  2  3  1  0     0  0
  3  5  1  0     0  0
  3 12  1  0     0  0
  3 13  1  0     0  0
  4  6  1  0     0  0
  4 14  1  0     0  0
  4 15  1  0     0  0
  5  7  1  0     0  0
  5 16  1  0     0  0
  5 17  1  0     0  0
  6  8  1  0     0  0
  6 18  1  0     0  0
  6 19  1  0     0  0
  7  9  1  0     0  0
  7 20  1  0     0  0
  7 21  1  0     0  0
  8 22  1  0     0  0
  8 23  1  0     0  0
  8 24  1  0     0  0
  9 25  1  0     0  0
  9 26  1  0     0  0
  9 27  1  0     0  0
M  END
