Dimethyl ether, ID: C115106
  NIST    04042217083D 1   1.00000     0.00000      
NIST Chemistry WebBook
  9  8  0     0  0              1 V2000
    2.8378    1.0013    1.0543 C   0  0  0  0  0  0           0  0  0
    1.8046    1.7097    1.6916 O   0  0  0  0  0  0           0  0  0
    0.6788    1.9361    0.8810 C   0  0  0  0  0  0           0  0  0
    3.6072    0.9254    1.8261 H   0  0  0  0  0  0           0  0  0
    2.5173    0.0000    0.7426 H   0  0  0  0  0  0           0  0  0
    3.2297    1.5417    0.1843 H   0  0  0  0  0  0           0  0  0
    0.0000    2.4857    1.5371 H   0  0  0  0  0  0           0  0  0
    0.9230    2.5417    0.0000 H   0  0  0  0  0  0           0  0  0
    0.2117    0.9986    0.5565 H   0  0  0  0  0  0           0  0  0
  1  2  1  0     0  0
  1  4  1  0     0  0
  1  5  1  0     0  0
  1  6  1  0     0  0
  2  3  1  0     0  0
  3  7  1  0     0  0
  3  8  1  0     0  0
  3  9  1  0     0  0
M  END
