10882 ETHYL PENTANOATE from www.chemspider.com
  Marvin  12300703363D          

 23 22  0  0  0  0            999 V2000
    1.0901    1.1821   -0.9201 O   0  0  0  0  0  0  0  0  0  0  0  0
   -0.8289    2.1552   -1.1624 O   0  0  0  0  0  0  0  0  0  0  0  0
   -1.0559   -0.6356    0.3457 C   0  0  0  0  0  0  0  0  0  0  0  0
   -1.8234   -1.9766    0.4328 C   0  0  0  0  0  0  0  0  0  0  0  0
   -0.7980   -0.1471   -1.1040 C   0  0  0  0  0  0  0  0  0  0  0  0
   -2.0876   -2.4328    1.8839 C   0  0  0  0  0  0  0  0  0  0  0  0
   -0.1418    1.1435   -1.0880 C   0  0  0  0  0  0  0  0  0  0  0  0
    1.8783    2.1609   -0.4579 C   0  0  0  0  0  0  0  0  0  0  0  0
    3.3685    1.8107   -0.6188 C   0  0  0  0  0  0  0  0  0  0  0  0
   -0.0981   -0.7465    0.8642 H   0  0  0  0  0  0  0  0  0  0  0  0
   -1.6336    0.1243    0.8827 H   0  0  0  0  0  0  0  0  0  0  0  0
   -1.2523   -2.7544   -0.0807 H   0  0  0  0  0  0  0  0  0  0  0  0
   -2.7848   -1.8768   -0.0783 H   0  0  0  0  0  0  0  0  0  0  0  0
   -0.1857   -0.8756   -1.6437 H   0  0  0  0  0  0  0  0  0  0  0  0
   -1.7498   -0.0835   -1.6407 H   0  0  0  0  0  0  0  0  0  0  0  0
   -2.6331   -3.3778    1.8855 H   0  0  0  0  0  0  0  0  0  0  0  0
   -1.1478   -2.5774    2.4205 H   0  0  0  0  0  0  0  0  0  0  0  0
   -2.6850   -1.6918    2.4192 H   0  0  0  0  0  0  0  0  0  0  0  0
    1.6641    2.2974    0.6062 H   0  0  0  0  0  0  0  0  0  0  0  0
    1.6892    3.1070   -0.9731 H   0  0  0  0  0  0  0  0  0  0  0  0
    3.9803    2.5947   -0.1679 H   0  0  0  0  0  0  0  0  0  0  0  0
    3.6049    0.8642   -0.1289 H   0  0  0  0  0  0  0  0  0  0  0  0
    3.6306    1.7359   -1.6760 H   0  0  0  0  0  0  0  0  0  0  0  0
  1  7  1  0  0  0  0
  1  8  1  0  0  0  0
  2  7  2  0  0  0  0
  3  4  1  0  0  0  0
  3  5  1  0  0  0  0
  3 10  1  0  0  0  0
  3 11  1  0  0  0  0
  4  6  1  0  0  0  0
  4 12  1  0  0  0  0
  4 13  1  0  0  0  0
  5  7  1  0  0  0  0
  5 14  1  0  0  0  0
  5 15  1  0  0  0  0
  6 16  1  0  0  0  0
  6 17  1  0  0  0  0
  6 18  1  0  0  0  0
  8  9  1  0  0  0  0
  8 19  1  0  0  0  0
  8 20  1  0  0  0  0
  9 21  1  0  0  0  0
  9 22  1  0  0  0  0
  9 23  1  0  0  0  0
M  END
$$$$
