1-Butanol, 3-methyl-, acetate, ID: C123922
  NIST    04042217083D 1   1.00000     0.00000      
NIST Chemistry WebBook
 23 22  0     0  0              1 V2000
    1.9886    2.1289    2.3776 C   0  0  0  0  0  0           0  0  0
    3.3611    2.4338    1.7741 C   0  0  0  0  0  0           0  0  0
    1.4927    0.7655    1.9212 C   0  0  0  0  0  0           0  0  0
    0.9936    3.2118    1.9974 C   0  0  0  0  0  0           0  0  0
    4.4060    1.4638    2.3209 C   0  0  0  0  0  0           0  0  0
    5.5977    1.6772    1.5641 O   0  0  0  0  0  0           0  0  0
    6.6924    0.9150    1.8498 C   0  0  0  0  0  0           0  0  0
    6.6246    0.0719    2.7231 O   0  0  0  0  0  0           0  0  0
    7.8815    1.2579    0.9981 C   0  0  0  0  0  0           0  0  0
    2.0893    2.1162    3.4911 H   0  0  0  0  0  0           0  0  0
    3.3070    2.3730    0.6683 H   0  0  0  0  0  0           0  0  0
    3.6496    3.4791    2.0013 H   0  0  0  0  0  0           0  0  0
    0.5968    0.4573    2.4733 H   0  0  0  0  0  0           0  0  0
    2.2707    0.0000    2.0805 H   0  0  0  0  0  0           0  0  0
    1.2413    0.7615    0.8522 H   0  0  0  0  0  0           0  0  0
    0.8833    3.2959    0.9078 H   0  0  0  0  0  0           0  0  0
    1.3056    4.1950    2.3732 H   0  0  0  0  0  0           0  0  0
    0.0000    2.9992    2.4127 H   0  0  0  0  0  0           0  0  0
    4.0551    0.4135    2.2089 H   0  0  0  0  0  0           0  0  0
    4.6051    1.6406    3.3945 H   0  0  0  0  0  0           0  0  0
    7.5928    1.6125    0.0000 H   0  0  0  0  0  0           0  0  0
    8.4683    2.0522    1.4785 H   0  0  0  0  0  0           0  0  0
    8.5358    0.3858    0.8720 H   0  0  0  0  0  0           0  0  0
  1  2  1  0     0  0
  1  3  1  0     0  0
  1  4  1  0     0  0
  1 10  1  0     0  0
  2  5  1  0     0  0
  2 11  1  0     0  0
  2 12  1  0     0  0
  3 13  1  0     0  0
  3 14  1  0     0  0
  3 15  1  0     0  0
  4 16  1  0     0  0
  4 17  1  0     0  0
  4 18  1  0     0  0
  5  6  1  0     0  0
  5 19  1  0     0  0
  5 20  1  0     0  0
  6  7  1  0     0  0
  7  8  2  0     0  0
  7  9  1  0     0  0
  9 21  1  0     0  0
  9 22  1  0     0  0
  9 23  1  0     0  0
M  END
