61184 ISOPROPYL BUTYRATE from www.chemspider.com
  Marvin  12310715543D          

 23 22  0  0  0  0            999 V2000
    0.6016    0.5369   -0.7378 O   0  0  0  0  0  0  0  0  0  0  0  0
   -1.2467    1.5005   -1.3050 O   0  0  0  0  0  0  0  0  0  0  0  0
    1.3806    1.5176   -0.2498 C   0  0  2  0  0  0  0  0  0  0  0  0
   -1.2674   -0.7962   -1.0430 C   0  0  0  0  0  0  0  0  0  0  0  0
   -1.5208   -1.2944    0.4067 C   0  0  0  0  0  0  0  0  0  0  0  0
   -0.6029    0.4917   -1.0488 C   0  0  0  0  0  0  0  0  0  0  0  0
    2.8611    1.1710   -0.5353 C   0  0  0  0  0  0  0  0  0  0  0  0
    1.1019    1.6845    1.2671 C   0  0  0  0  0  0  0  0  0  0  0  0
   -2.2849   -2.6300    0.5175 C   0  0  0  0  0  0  0  0  0  0  0  0
    1.1784    2.4699   -0.7546 H   0  0  0  0  0  0  0  0  0  0  0  0
   -0.6623   -1.5225   -1.5943 H   0  0  0  0  0  0  0  0  0  0  0  0
   -2.2283   -0.7330   -1.5636 H   0  0  0  0  0  0  0  0  0  0  0  0
   -2.0991   -0.5399    0.9489 H   0  0  0  0  0  0  0  0  0  0  0  0
   -0.5656   -1.4110    0.9272 H   0  0  0  0  0  0  0  0  0  0  0  0
    3.0363    1.1118   -1.6113 H   0  0  0  0  0  0  0  0  0  0  0  0
    3.5236    1.9397   -0.1321 H   0  0  0  0  0  0  0  0  0  0  0  0
    3.1356    0.2116   -0.0905 H   0  0  0  0  0  0  0  0  0  0  0  0
    1.7228    2.4708    1.6979 H   0  0  0  0  0  0  0  0  0  0  0  0
    1.3034    0.7521    1.8004 H   0  0  0  0  0  0  0  0  0  0  0  0
    0.0564    1.9502    1.4387 H   0  0  0  0  0  0  0  0  0  0  0  0
   -2.4237   -2.8885    1.5696 H   0  0  0  0  0  0  0  0  0  0  0  0
   -1.7293   -3.4379    0.0379 H   0  0  0  0  0  0  0  0  0  0  0  0
   -3.2706   -2.5549    0.0544 H   0  0  0  0  0  0  0  0  0  0  0  0
  1  3  1  0  0  0  0
  1  6  1  0  0  0  0
  2  6  2  0  0  0  0
  3  7  1  0  0  0  0
  3  8  1  0  0  0  0
  3 10  1  0  0  0  0
  4  5  1  0  0  0  0
  4  6  1  0  0  0  0
  4 11  1  0  0  0  0
  4 12  1  0  0  0  0
  5  9  1  0  0  0  0
  5 13  1  0  0  0  0
  5 14  1  0  0  0  0
  7 15  1  0  0  0  0
  7 16  1  0  0  0  0
  7 17  1  0  0  0  0
  8 18  1  0  0  0  0
  8 19  1  0  0  0  0
  8 20  1  0  0  0  0
  9 21  1  0  0  0  0
  9 22  1  0  0  0  0
  9 23  1  0  0  0  0
M  END
$$$$
