12206 METHYL PENTANOATE from www.chemspider.com
  Marvin  12300703363D          

 20 19  0  0  0  0            999 V2000
   -2.3908    1.3804    0.0702 O   0  0  0  0  0  0  0  0  0  0  0  0
   -0.3950    2.1363   -0.1514 O   0  0  0  0  0  0  0  0  0  0  0  0
    0.8560   -0.3449   -0.1669 C   0  0  0  0  0  0  0  0  0  0  0  0
    1.3903   -1.7983   -0.1536 C   0  0  0  0  0  0  0  0  0  0  0  0
   -0.6884   -0.1801   -0.1650 C   0  0  0  0  0  0  0  0  0  0  0  0
    2.9350   -1.8543   -0.1421 C   0  0  0  0  0  0  0  0  0  0  0  0
   -1.1712    1.1905   -0.0849 C   0  0  0  0  0  0  0  0  0  0  0  0
   -3.0628    2.4691    0.4631 C   0  0  0  0  0  0  0  0  0  0  0  0
    1.2528    0.1644    0.7168 H   0  0  0  0  0  0  0  0  0  0  0  0
    1.2545    0.1614   -1.0508 H   0  0  0  0  0  0  0  0  0  0  0  0
    1.0157   -2.3194    0.7316 H   0  0  0  0  0  0  0  0  0  0  0  0
    1.0238   -2.3325   -1.0338 H   0  0  0  0  0  0  0  0  0  0  0  0
   -1.0815   -0.7233    0.6993 H   0  0  0  0  0  0  0  0  0  0  0  0
   -1.1040   -0.6486   -1.0614 H   0  0  0  0  0  0  0  0  0  0  0  0
    3.2796   -2.8894   -0.1361 H   0  0  0  0  0  0  0  0  0  0  0  0
    3.3328   -1.3572    0.7454 H   0  0  0  0  0  0  0  0  0  0  0  0
    3.3453   -1.3623   -1.0266 H   0  0  0  0  0  0  0  0  0  0  0  0
   -4.1310    2.2838    0.3560 H   0  0  0  0  0  0  0  0  0  0  0  0
   -2.8542    2.6711    1.5165 H   0  0  0  0  0  0  0  0  0  0  0  0
   -2.8070    3.3533   -0.1262 H   0  0  0  0  0  0  0  0  0  0  0  0
  1  7  1  0  0  0  0
  1  8  1  0  0  0  0
  2  7  2  0  0  0  0
  3  4  1  0  0  0  0
  3  5  1  0  0  0  0
  3  9  1  0  0  0  0
  3 10  1  0  0  0  0
  4  6  1  0  0  0  0
  4 11  1  0  0  0  0
  4 12  1  0  0  0  0
  5  7  1  0  0  0  0
  5 13  1  0  0  0  0
  5 14  1  0  0  0  0
  6 15  1  0  0  0  0
  6 16  1  0  0  0  0
  6 17  1  0  0  0  0
  8 18  1  0  0  0  0
  8 19  1  0  0  0  0
  8 20  1  0  0  0  0
M  END
$$$$
