methyl dodecanoate from chemspider.com
  Marvin  12300703363D          

 41 40  0  0  0  0            999 V2000
   -5.9290    4.2934   -0.1391 O   0  0  0  0  0  0  0  0  0  0  0  0
   -5.9853    2.1592    0.0981 O   0  0  0  0  0  0  0  0  0  0  0  0
    0.9147   -1.1026    0.0663 C   0  0  0  0  0  0  0  0  0  0  0  0
    0.3924    0.3505    0.0676 C   0  0  0  0  0  0  0  0  0  0  0  0
    2.4558   -1.1516    0.0665 C   0  0  0  0  0  0  0  0  0  0  0  0
   -1.1470    0.3968    0.0729 C   0  0  0  0  0  0  0  0  0  0  0  0
    2.9966   -2.5980    0.0669 C   0  0  0  0  0  0  0  0  0  0  0  0
   -1.6997    1.8399    0.0848 C   0  0  0  0  0  0  0  0  0  0  0  0
    4.5410   -2.6331    0.0672 C   0  0  0  0  0  0  0  0  0  0  0  0
   -3.2421    1.8243    0.1008 C   0  0  0  0  0  0  0  0  0  0  0  0
    5.1099   -4.0703    0.0673 C   0  0  0  0  0  0  0  0  0  0  0  0
   -3.9041    3.2232    0.1036 C   0  0  0  0  0  0  0  0  0  0  0  0
    6.6511   -4.0955    0.0673 C   0  0  0  0  0  0  0  0  0  0  0  0
   -5.3525    3.2067    0.0259 C   0  0  0  0  0  0  0  0  0  0  0  0
   -7.1708    4.5612   -0.5492 C   0  0  0  0  0  0  0  0  0  0  0  0
    0.5359   -1.6239   -0.8182 H   0  0  0  0  0  0  0  0  0  0  0  0
    0.5366   -1.6250    0.9505 H   0  0  0  0  0  0  0  0  0  0  0  0
    0.7652    0.8726   -0.8187 H   0  0  0  0  0  0  0  0  0  0  0  0
    0.7703    0.8720    0.9520 H   0  0  0  0  0  0  0  0  0  0  0  0
    2.8287   -0.6265   -0.8181 H   0  0  0  0  0  0  0  0  0  0  0  0
    2.8285   -0.6266    0.9513 H   0  0  0  0  0  0  0  0  0  0  0  0
   -1.5199   -0.1261   -0.8136 H   0  0  0  0  0  0  0  0  0  0  0  0
   -1.5146   -0.1371    0.9547 H   0  0  0  0  0  0  0  0  0  0  0  0
    2.6211   -3.1216   -0.8173 H   0  0  0  0  0  0  0  0  0  0  0  0
    2.6210   -3.1212    0.9513 H   0  0  0  0  0  0  0  0  0  0  0  0
   -1.3458    2.3722   -0.8032 H   0  0  0  0  0  0  0  0  0  0  0  0
   -1.3290    2.3699    0.9667 H   0  0  0  0  0  0  0  0  0  0  0  0
    4.9069   -2.1019   -0.8166 H   0  0  0  0  0  0  0  0  0  0  0  0
    4.9067   -2.1019    0.9510 H   0  0  0  0  0  0  0  0  0  0  0  0
   -3.5858    1.2794   -0.7847 H   0  0  0  0  0  0  0  0  0  0  0  0
   -3.5792    1.2757    0.9858 H   0  0  0  0  0  0  0  0  0  0  0  0
    4.7485   -4.6043   -0.8159 H   0  0  0  0  0  0  0  0  0  0  0  0
    4.7484   -4.6042    0.9505 H   0  0  0  0  0  0  0  0  0  0  0  0
   -3.5225    3.7726   -0.7622 H   0  0  0  0  0  0  0  0  0  0  0  0
   -3.5974    3.7674    1.0010 H   0  0  0  0  0  0  0  0  0  0  0  0
    7.0058   -5.1268    0.0673 H   0  0  0  0  0  0  0  0  0  0  0  0
    7.0422   -3.5941   -0.8204 H   0  0  0  0  0  0  0  0  0  0  0  0
    7.0422   -3.5941    0.9550 H   0  0  0  0  0  0  0  0  0  0  0  0
   -7.3441    5.6320   -0.4523 H   0  0  0  0  0  0  0  0  0  0  0  0
   -7.2761    4.2860   -1.6014 H   0  0  0  0  0  0  0  0  0  0  0  0
   -7.9244    4.0314    0.0386 H   0  0  0  0  0  0  0  0  0  0  0  0
  1 14  1  0  0  0  0
  1 15  1  0  0  0  0
  2 14  2  0  0  0  0
  3  4  1  0  0  0  0
  3  5  1  0  0  0  0
  3 16  1  0  0  0  0
  3 17  1  0  0  0  0
  4  6  1  0  0  0  0
  4 18  1  0  0  0  0
  4 19  1  0  0  0  0
  5  7  1  0  0  0  0
  5 20  1  0  0  0  0
  5 21  1  0  0  0  0
  6  8  1  0  0  0  0
  6 22  1  0  0  0  0
  6 23  1  0  0  0  0
  7  9  1  0  0  0  0
  7 24  1  0  0  0  0
  7 25  1  0  0  0  0
  8 10  1  0  0  0  0
  8 26  1  0  0  0  0
  8 27  1  0  0  0  0
  9 11  1  0  0  0  0
  9 28  1  0  0  0  0
  9 29  1  0  0  0  0
 10 12  1  0  0  0  0
 10 30  1  0  0  0  0
 10 31  1  0  0  0  0
 11 13  1  0  0  0  0
 11 32  1  0  0  0  0
 11 33  1  0  0  0  0
 12 14  1  0  0  0  0
 12 34  1  0  0  0  0
 12 35  1  0  0  0  0
 13 36  1  0  0  0  0
 13 37  1  0  0  0  0
 13 38  1  0  0  0  0
 15 39  1  0  0  0  0
 15 40  1  0  0  0  0
 15 41  1  0  0  0  0
M  END
$$$$
