12180 METHYL BUTYRATE from www.chemspider.com
  Marvin  12300703363D          

 17 16  0  0  0  0            999 V2000
    1.3850    1.0270   -0.5891 O   0  0  0  0  0  0  0  0  0  0  0  0
   -0.5206    2.0197   -0.8468 O   0  0  0  0  0  0  0  0  0  0  0  0
   -0.7744   -0.7984    0.6515 C   0  0  0  0  0  0  0  0  0  0  0  0
   -0.5065   -0.2875   -0.7883 C   0  0  0  0  0  0  0  0  0  0  0  0
   -1.5383   -2.1373    0.7109 C   0  0  0  0  0  0  0  0  0  0  0  0
    0.1558    1.0010   -0.7603 C   0  0  0  0  0  0  0  0  0  0  0  0
    2.1980    1.9998   -0.1684 C   0  0  0  0  0  0  0  0  0  0  0  0
    0.1745   -0.9238    1.1819 H   0  0  0  0  0  0  0  0  0  0  0  0
   -1.3608   -0.0555    1.2014 H   0  0  0  0  0  0  0  0  0  0  0  0
    0.1064   -1.0108   -1.3346 H   0  0  0  0  0  0  0  0  0  0  0  0
   -1.4544   -0.2154   -1.3300 H   0  0  0  0  0  0  0  0  0  0  0  0
   -1.7005   -2.4274    1.7507 H   0  0  0  0  0  0  0  0  0  0  0  0
   -0.9695   -2.9273    0.2176 H   0  0  0  0  0  0  0  0  0  0  0  0
   -2.5118   -2.0461    0.2257 H   0  0  0  0  0  0  0  0  0  0  0  0
    3.2287    1.6691   -0.2950 H   0  0  0  0  0  0  0  0  0  0  0  0
    2.0255    2.1815    0.8945 H   0  0  0  0  0  0  0  0  0  0  0  0
    2.0630    2.9315   -0.7218 H   0  0  0  0  0  0  0  0  0  0  0  0
  1  6  1  0  0  0  0
  1  7  1  0  0  0  0
  2  6  2  0  0  0  0
  3  4  1  0  0  0  0
  3  5  1  0  0  0  0
  3  8  1  0  0  0  0
  3  9  1  0  0  0  0
  4  6  1  0  0  0  0
  4 10  1  0  0  0  0
  4 11  1  0  0  0  0
  5 12  1  0  0  0  0
  5 13  1  0  0  0  0
  5 14  1  0  0  0  0
  7 15  1  0  0  0  0
  7 16  1  0  0  0  0
  7 17  1  0  0  0  0
M  END
$$$$
