Acetic acid, methyl ester, ID: C79209
  NIST    04042217093D 1   1.00000     0.00000      
NIST Chemistry WebBook
 11 10  0     0  0              1 V2000
    2.3901    2.4629    0.9805 O   0  0  0  0  0  0           0  0  0
    1.9535    1.1657    0.9546 C   0  0  0  0  0  0           0  0  0
    0.4578    1.0499    1.0129 C   0  0  0  0  0  0           0  0  0
    2.7695    0.2680    0.8892 O   0  0  0  0  0  0           0  0  0
    3.7779    2.7123    0.9277 C   0  0  0  0  0  0           0  0  0
    0.0537    1.5754    1.8880 H   0  0  0  0  0  0           0  0  0
    0.0000    1.4906    0.1175 H   0  0  0  0  0  0           0  0  0
    0.1442    0.0000    1.0721 H   0  0  0  0  0  0           0  0  0
    4.2240    2.3380    0.0000 H   0  0  0  0  0  0           0  0  0
    4.3011    2.2827    1.7882 H   0  0  0  0  0  0           0  0  0
    3.8221    3.8037    0.9596 H   0  0  0  0  0  0           0  0  0
  1  2  1  0     0  0
  1  5  1  0     0  0
  2  3  1  0     0  0
  2  4  2  0     0  0
  3  6  1  0     0  0
  3  7  1  0     0  0
  3  8  1  0     0  0
  5  9  1  0     0  0
  5 10  1  0     0  0
  5 11  1  0     0  0
M  END
