Cyclopentane, methyl-, ID: C96377
  NIST    04042217093D 1   1.00000     0.00000      
NIST Chemistry WebBook
 18 18  0     0  0              1 V2000
    0.7382    1.6244    1.6048 C   0  0  0  0  0  0           0  0  0
    2.1328    1.0754    1.8204 C   0  0  0  0  0  0           0  0  0
    3.1917    1.8262    1.0078 C   0  0  0  0  0  0           0  0  0
    2.5893    1.1905    3.2773 C   0  0  0  0  0  0           0  0  0
    4.4831    1.7622    1.8179 C   0  0  0  0  0  0           0  0  0
    4.1060    1.3525    3.2409 C   0  0  0  0  0  0           0  0  0
    0.4390    1.5432    0.5519 H   0  0  0  0  0  0           0  0  0
    0.6648    2.6843    1.8855 H   0  0  0  0  0  0           0  0  0
    0.0000    1.0756    2.2035 H   0  0  0  0  0  0           0  0  0
    2.1411    0.0000    1.5214 H   0  0  0  0  0  0           0  0  0
    2.8842    2.8769    0.8421 H   0  0  0  0  0  0           0  0  0
    3.3144    1.3905    0.0000 H   0  0  0  0  0  0           0  0  0
    2.2820    0.3105    3.8704 H   0  0  0  0  0  0           0  0  0
    2.1135    2.0613    3.7684 H   0  0  0  0  0  0           0  0  0
    5.0110    2.7330    1.8030 H   0  0  0  0  0  0           0  0  0
    5.1911    1.0364    1.3761 H   0  0  0  0  0  0           0  0  0
    4.6101    0.4094    3.5231 H   0  0  0  0  0  0           0  0  0
    4.4453    2.0996    3.9812 H   0  0  0  0  0  0           0  0  0
  1  2  1  0     0  0
  1  7  1  0     0  0
  1  8  1  0     0  0
  1  9  1  0     0  0
  2  3  1  0     0  0
  4  2  1  0     0  0
  2 10  1  0     0  0
  3  5  1  0     0  0
  3 11  1  0     0  0
  3 12  1  0     0  0
  6  4  1  0     0  0
  4 13  1  0     0  0
  4 14  1  0     0  0
  5  6  1  0     0  0
  5 15  1  0     0  0
  5 16  1  0     0  0
  6 17  1  0     0  0
  6 18  1  0     0  0
M  END
