
 OpenBabel08311014263D

 13 12  0  0  0  0  0  0  0  0999 V2000
    1.7880    1.4184    2.8389 C   0  0  0  0  0
    0.8535    2.5921    2.6262 C   0  0  0  0  0
    2.3811    0.9609    1.5251 C   0  0  0  0  0
    3.6640    1.6156    1.0854 C   0  0  0  0  0
    1.8226    0.1125    0.8309 O   0  0  0  0  0
    2.5978    1.6839    3.5266 H   0  0  0  0  0
    1.2499    0.5756    3.2866 H   0  0  0  0  0
    0.0384    2.3253    1.9453 H   0  0  0  0  0
    0.4155    2.9092    3.5777 H   0  0  0  0  0
    1.3828    3.4460    2.1914 H   0  0  0  0  0
    3.9622    1.2216    0.1096 H   0  0  0  0  0
    3.5193    2.6952    0.9994 H   0  0  0  0  0
    4.4530    1.3969    1.8094 H   0  0  0  0  0
  1  2  1  0  0  0
  1  3  1  0  0  0
  1  6  1  0  0  0
  1  7  1  0  0  0
  2  8  1  0  0  0
  2  9  1  0  0  0
  2 10  1  0  0  0
  3  4  1  0  0  0
  3  5  2  0  0  0
  4 11  1  0  0  0
  4 12  1  0  0  0
  4 13  1  0  0  0
M  END
