
 OpenBabel07221012063D

 18 17  0  0  0  0  0  0  0  0999 V2000
    2.2393    2.0200    1.5507 C   0  0  0  0  0
    1.1712    1.3976    2.2624 O   0  0  0  0  0
   -0.0522    2.1004    2.0911 C   0  0  0  0  0
    3.5081    1.2092    1.7874 C   0  0  0  0  0
    4.7073    1.8126    1.0608 C   0  0  0  0  0
    5.9692    0.9980    1.2958 C   0  0  0  0  0
    2.3718    3.0457    1.9131 H   0  0  0  0  0
    2.0003    2.0461    0.4815 H   0  0  0  0  0
   -0.8304    1.5809    2.6564 H   0  0  0  0  0
   -0.3396    2.1180    1.0355 H   0  0  0  0  0
    0.0354    3.1215    2.4744 H   0  0  0  0  0
    3.3452    0.1752    1.4576 H   0  0  0  0  0
    3.7071    1.1519    2.8652 H   0  0  0  0  0
    4.8726    2.8400    1.4057 H   0  0  0  0  0
    4.5050    1.8603   -0.0155 H   0  0  0  0  0
    5.8482   -0.0264    0.9301 H   0  0  0  0  0
    6.2162    0.9561    2.3612 H   0  0  0  0  0
    6.8149    1.4495    0.7683 H   0  0  0  0  0
  1  2  1  0  0  0
  1  4  1  0  0  0
  1  7  1  0  0  0
  1  8  1  0  0  0
  2  3  1  0  0  0
  3  9  1  0  0  0
  3 10  1  0  0  0
  3 11  1  0  0  0
  4  5  1  0  0  0
  4 12  1  0  0  0
  4 13  1  0  0  0
  5  6  1  0  0  0
  5 14  1  0  0  0
  5 15  1  0  0  0
  6 16  1  0  0  0
  6 17  1  0  0  0
  6 18  1  0  0  0
M  END
