Hexanoic acid, methyl ester, ID: C106707
  NIST    04042217083D 1   1.00000     0.00000      
NIST Chemistry WebBook
 23 22  0     0  0              1 V2000
    4.1592    1.6800    1.2871 C   0  0  0  0  0  0           0  0  0
    2.9940    1.4674    2.2236 C   0  0  0  0  0  0           0  0  0
    1.8749    1.0265    1.5660 O   0  0  0  0  0  0           0  0  0
    2.9373    1.6329    3.4254 O   0  0  0  0  0  0           0  0  0
    5.4019    2.1800    2.0045 C   0  0  0  0  0  0           0  0  0
    0.7014    0.7848    2.3110 C   0  0  0  0  0  0           0  0  0
    6.5400    2.4024    1.0208 C   0  0  0  0  0  0           0  0  0
    7.7902    2.8990    1.7291 C   0  0  0  0  0  0           0  0  0
    8.9212    3.1349    0.7538 C   0  0  0  0  0  0           0  0  0
    4.3748    0.7270    0.7620 H   0  0  0  0  0  0           0  0  0
    3.8562    2.3976    0.4972 H   0  0  0  0  0  0           0  0  0
    5.1773    3.1205    2.5463 H   0  0  0  0  0  0           0  0  0
    5.7095    1.4551    2.7847 H   0  0  0  0  0  0           0  0  0
    0.8482    0.0000    3.0606 H   0  0  0  0  0  0           0  0  0
    0.3331    1.6952    2.7956 H   0  0  0  0  0  0           0  0  0
    0.0000    0.4520    1.5415 H   0  0  0  0  0  0           0  0  0
    6.2336    3.1303    0.2426 H   0  0  0  0  0  0           0  0  0
    6.7631    1.4624    0.4768 H   0  0  0  0  0  0           0  0  0
    8.1016    2.1670    2.5008 H   0  0  0  0  0  0           0  0  0
    7.5646    3.8333    2.2808 H   0  0  0  0  0  0           0  0  0
    9.8230    3.4896    1.2688 H   0  0  0  0  0  0           0  0  0
    9.1906    2.2164    0.2154 H   0  0  0  0  0  0           0  0  0
    8.6561    3.8883    0.0000 H   0  0  0  0  0  0           0  0  0
  1  2  1  0     0  0
  1  5  1  0     0  0
  1 10  1  0     0  0
  1 11  1  0     0  0
  2  3  1  0     0  0
  2  4  2  0     0  0
  3  6  1  0     0  0
  5  7  1  0     0  0
  5 12  1  0     0  0
  5 13  1  0     0  0
  6 14  1  0     0  0
  6 15  1  0     0  0
  6 16  1  0     0  0
  7  8  1  0     0  0
  7 17  1  0     0  0
  7 18  1  0     0  0
  8  9  1  0     0  0
  8 19  1  0     0  0
  8 20  1  0     0  0
  9 21  1  0     0  0
  9 22  1  0     0  0
  9 23  1  0     0  0
M  END
