Decanoic acid, ID: C334485
  NIST    04042217083D 1   1.00000     0.00000      
NIST Chemistry WebBook
 32 31  0     0  0              1 V2000
    4.2299    2.1846    1.3051 C   0  0  0  0  0  0           0  0  0
    5.2340    1.0962    0.9501 C   0  0  0  0  0  0           0  0  0
    3.3341    1.7474    2.4541 C   0  0  0  0  0  0           0  0  0
    6.2588    0.9198    2.0628 C   0  0  0  0  0  0           0  0  0
    2.4653    2.8962    2.9403 C   0  0  0  0  0  0           0  0  0
    7.1762    2.1285    2.1620 C   0  0  0  0  0  0           0  0  0
    1.6097    2.4620    4.1029 C   0  0  0  0  0  0           0  0  0
    8.0566    2.0645    3.3981 C   0  0  0  0  0  0           0  0  0
    0.4723    1.8027    3.7779 O   0  0  0  0  0  0           0  0  0
    1.8002    2.6275    5.2943 O   0  0  0  0  0  0           0  0  0
    8.9788    3.2700    3.4855 C   0  0  0  0  0  0           0  0  0
    9.8520    3.2093    4.7184 C   0  0  0  0  0  0           0  0  0
    3.6197    2.4553    0.4229 H   0  0  0  0  0  0           0  0  0
    4.7939    3.1039    1.5886 H   0  0  0  0  0  0           0  0  0
    4.7096    0.1384    0.7652 H   0  0  0  0  0  0           0  0  0
    5.7435    1.3500    0.0000 H   0  0  0  0  0  0           0  0  0
    3.9794    1.3614    3.2771 H   0  0  0  0  0  0           0  0  0
    2.7020    0.8931    2.1411 H   0  0  0  0  0  0           0  0  0
    6.8514    0.0000    1.9004 H   0  0  0  0  0  0           0  0  0
    5.7140    0.7743    3.0245 H   0  0  0  0  0  0           0  0  0
    3.0953    3.7527    3.2541 H   0  0  0  0  0  0           0  0  0
    1.8256    3.2708    2.1159 H   0  0  0  0  0  0           0  0  0
    6.5508    3.0514    2.1752 H   0  0  0  0  0  0           0  0  0
    7.8013    2.2065    1.2504 H   0  0  0  0  0  0           0  0  0
    8.6536    1.1305    3.3882 H   0  0  0  0  0  0           0  0  0
    7.4274    2.0042    4.3092 H   0  0  0  0  0  0           0  0  0
    0.0000    1.5617    4.5689 H   0  0  0  0  0  0           0  0  0
    9.6104    3.3279    2.5768 H   0  0  0  0  0  0           0  0  0
    8.3802    4.2026    3.4907 H   0  0  0  0  0  0           0  0  0
   10.4737    2.3042    4.7311 H   0  0  0  0  0  0           0  0  0
    9.2529    3.2058    5.6390 H   0  0  0  0  0  0           0  0  0
   10.5279    4.0724    4.7708 H   0  0  0  0  0  0           0  0  0
  1  2  1  0     0  0
  1  3  1  0     0  0
  1 13  1  0     0  0
  1 14  1  0     0  0
  2  4  1  0     0  0
  2 15  1  0     0  0
  2 16  1  0     0  0
  3  5  1  0     0  0
  3 17  1  0     0  0
  3 18  1  0     0  0
  4  6  1  0     0  0
  4 19  1  0     0  0
  4 20  1  0     0  0
  5  7  1  0     0  0
  5 21  1  0     0  0
  5 22  1  0     0  0
  6  8  1  0     0  0
  6 23  1  0     0  0
  6 24  1  0     0  0
  7  9  1  0     0  0
  7 10  2  0     0  0
  8 11  1  0     0  0
  8 25  1  0     0  0
  8 26  1  0     0  0
  9 27  1  0     0  0
 11 12  1  0     0  0
 11 28  1  0     0  0
 11 29  1  0     0  0
 12 30  1  0     0  0
 12 31  1  0     0  0
 12 32  1  0     0  0
M  END
