Hexyl ethanoate, ID: C142927
  NIST    04042217083D 1   1.00000     0.00000      
NIST Chemistry WebBook
 26 25  0     0  0              1 V2000
    0.6976    2.0307    1.4826 C   0  0  0  0  0  0           0  0  0
    2.1247    2.3474    1.1025 C   0  0  0  0  0  0           0  0  0
    2.5746    3.6894    1.6603 C   0  0  0  0  0  0           0  0  0
    4.0522    3.9362    1.3942 C   0  0  0  0  0  0           0  0  0
    4.9218    2.9502    2.1603 C   0  0  0  0  0  0           0  0  0
    6.3792    3.0791    1.7317 C   0  0  0  0  0  0           0  0  0
    9.1000    0.9981    3.1915 C   0  0  0  0  0  0           0  0  0
    8.4620    2.0501    2.3307 C   0  0  0  0  0  0           0  0  0
    7.1105    2.1245    2.5021 O   0  0  0  0  0  0           0  0  0
    9.0075    2.7941    1.5391 O   0  0  0  0  0  0           0  0  0
    0.5663    1.9913    2.5722 H   0  0  0  0  0  0           0  0  0
    0.0000    2.7863    1.0975 H   0  0  0  0  0  0           0  0  0
    0.3849    1.0591    1.0794 H   0  0  0  0  0  0           0  0  0
    2.2347    2.3412    0.0000 H   0  0  0  0  0  0           0  0  0
    2.8164    1.5561    1.4727 H   0  0  0  0  0  0           0  0  0
    2.3774    3.7314    2.7506 H   0  0  0  0  0  0           0  0  0
    1.9715    4.5049    1.2157 H   0  0  0  0  0  0           0  0  0
    4.2561    3.8576    0.3073 H   0  0  0  0  0  0           0  0  0
    4.3180    4.9740    1.6758 H   0  0  0  0  0  0           0  0  0
    4.8190    3.1183    3.2507 H   0  0  0  0  0  0           0  0  0
    4.5405    1.9179    1.9829 H   0  0  0  0  0  0           0  0  0
    6.5081    2.8655    0.6536 H   0  0  0  0  0  0           0  0  0
    6.7678    4.0977    1.9230 H   0  0  0  0  0  0           0  0  0
    8.9111    0.0000    2.7742 H   0  0  0  0  0  0           0  0  0
    8.7040    1.0129    4.2153 H   0  0  0  0  0  0           0  0  0
   10.1869    1.1406    3.2456 H   0  0  0  0  0  0           0  0  0
  1  2  1  0     0  0
  1 11  1  0     0  0
  1 12  1  0     0  0
  1 13  1  0     0  0
  2  3  1  0     0  0
  2 14  1  0     0  0
  2 15  1  0     0  0
  3  4  1  0     0  0
  3 16  1  0     0  0
  3 17  1  0     0  0
  4  5  1  0     0  0
  4 18  1  0     0  0
  4 19  1  0     0  0
  5  6  1  0     0  0
  5 20  1  0     0  0
  5 21  1  0     0  0
  6  9  1  0     0  0
  6 22  1  0     0  0
  6 23  1  0     0  0
  7  8  1  0     0  0
  7 24  1  0     0  0
  7 25  1  0     0  0
  7 26  1  0     0  0
  8  9  1  0     0  0
  8 10  2  0     0  0
M  END
