Nonane, ID: C111842
  NIST    04042217083D 1   1.00000     0.00000      
NIST Chemistry WebBook
 29 28  0     0  0              1 V2000
    6.7289    0.9794    1.4284 C   0  0  0  0  0  0           0  0  0
    5.7466    2.0603    1.8504 C   0  0  0  0  0  0           0  0  0
    4.3561    1.7922    1.2986 C   0  0  0  0  0  0           0  0  0
    8.1427    1.2324    1.9345 C   0  0  0  0  0  0           0  0  0
    3.3730    2.8669    1.7332 C   0  0  0  0  0  0           0  0  0
    8.9446    2.1992    1.0730 C   0  0  0  0  0  0           0  0  0
    1.9826    2.6051    1.1765 C   0  0  0  0  0  0           0  0  0
    8.6726    3.6506    1.3992 C   0  0  0  0  0  0           0  0  0
    1.0030    3.6724    1.6094 C   0  0  0  0  0  0           0  0  0
    6.7316    0.8825    0.3236 H   0  0  0  0  0  0           0  0  0
    6.3752    0.0000    1.8090 H   0  0  0  0  0  0           0  0  0
    6.1108    3.0550    1.5064 H   0  0  0  0  0  0           0  0  0
    5.7093    2.1272    2.9564 H   0  0  0  0  0  0           0  0  0
    4.0012    0.7965    1.6331 H   0  0  0  0  0  0           0  0  0
    4.3922    1.7376    0.1917 H   0  0  0  0  0  0           0  0  0
    8.6799    0.2636    1.9680 H   0  0  0  0  0  0           0  0  0
    8.1143    1.5917    2.9829 H   0  0  0  0  0  0           0  0  0
    3.7305    3.8630    1.4025 H   0  0  0  0  0  0           0  0  0
    3.3327    2.9190    2.8399 H   0  0  0  0  0  0           0  0  0
    8.7414    2.0098    0.0000 H   0  0  0  0  0  0           0  0  0
   10.0253    1.9945    1.2085 H   0  0  0  0  0  0           0  0  0
    1.6267    1.6085    1.5055 H   0  0  0  0  0  0           0  0  0
    2.0233    2.5552    0.0701 H   0  0  0  0  0  0           0  0  0
    7.6043    3.8974    1.2808 H   0  0  0  0  0  0           0  0  0
    9.2411    4.3209    0.7427 H   0  0  0  0  0  0           0  0  0
    8.9477    3.8925    2.4345 H   0  0  0  0  0  0           0  0  0
    0.0000    3.4795    1.2078 H   0  0  0  0  0  0           0  0  0
    1.3095    4.6681    1.2625 H   0  0  0  0  0  0           0  0  0
    0.9149    3.7219    2.7030 H   0  0  0  0  0  0           0  0  0
  1  2  1  0     0  0
  1  4  1  0     0  0
  1 10  1  0     0  0
  1 11  1  0     0  0
  2  3  1  0     0  0
  2 12  1  0     0  0
  2 13  1  0     0  0
  3  5  1  0     0  0
  3 14  1  0     0  0
  3 15  1  0     0  0
  4  6  1  0     0  0
  4 16  1  0     0  0
  4 17  1  0     0  0
  5  7  1  0     0  0
  5 18  1  0     0  0
  5 19  1  0     0  0
  6  8  1  0     0  0
  6 20  1  0     0  0
  6 21  1  0     0  0
  7  9  1  0     0  0
  7 22  1  0     0  0
  7 23  1  0     0  0
  8 24  1  0     0  0
  8 25  1  0     0  0
  8 26  1  0     0  0
  9 27  1  0     0  0
  9 28  1  0     0  0
  9 29  1  0     0  0
M  END
