
 OpenBabel08311014013D

 26 25  0  0  0  0  0  0  0  0999 V2000
    3.8423    2.3744    1.6673 C   0  0  0  0  0
    2.8455    3.0430    2.6154 C   0  0  0  0  0
    1.4022    2.7249    2.2207 C   0  0  0  0  0
    5.2852    2.6803    2.0717 C   0  0  0  0  0
    0.4062    3.4088    3.1568 C   0  0  0  0  0
    6.2813    2.0271    1.1140 C   0  0  0  0  0
   -1.0293    3.0850    2.7754 C   0  0  0  0  0
    7.7173    2.3185    1.5197 C   0  0  0  0  0
    3.6651    2.7242    0.6431 H   0  0  0  0  0
    3.6824    1.2893    1.6708 H   0  0  0  0  0
    2.9992    4.1290    2.6030 H   0  0  0  0  0
    3.0283    2.7024    3.6420 H   0  0  0  0  0
    1.2457    1.6396    2.2462 H   0  0  0  0  0
    1.2217    3.0532    1.1898 H   0  0  0  0  0
    5.4649    2.3192    3.0917 H   0  0  0  0  0
    5.4429    3.7657    2.0809 H   0  0  0  0  0
    0.5505    4.4949    3.1242 H   0  0  0  0  0
    0.5846    3.0885    4.1899 H   0  0  0  0  0
    6.1139    2.3954    0.0950 H   0  0  0  0  0
    6.1258    0.9421    1.0966 H   0  0  0  0  0
   -1.7248    3.5891    3.4540 H   0  0  0  0  0
   -1.2494    3.4169    1.7556 H   0  0  0  0  0
   -1.2177    2.0082    2.8348 H   0  0  0  0  0
    7.9285    1.9293    2.5209 H   0  0  0  0  0
    8.4126    1.8467    0.8184 H   0  0  0  0  0
    7.9142    3.3954    1.5208 H   0  0  0  0  0
  1  2  1  0  0  0
  1  4  1  0  0  0
  1  9  1  0  0  0
  1 10  1  0  0  0
  2  3  1  0  0  0
  2 11  1  0  0  0
  2 12  1  0  0  0
  3  5  1  0  0  0
  3 13  1  0  0  0
  3 14  1  0  0  0
  4  6  1  0  0  0
  4 15  1  0  0  0
  4 16  1  0  0  0
  5  7  1  0  0  0
  5 17  1  0  0  0
  5 18  1  0  0  0
  6  8  1  0  0  0
  6 19  1  0  0  0
  6 20  1  0  0  0
  7 21  1  0  0  0
  7 22  1  0  0  0
  7 23  1  0  0  0
  8 24  1  0  0  0
  8 25  1  0  0  0
  8 26  1  0  0  0
M  END
