n-Triacontane, ID: C638686
  NIST    04042217093D 1   1.00000     0.00000      
NIST Chemistry WebBook
 92 91  0     0  0              1 V2000
   14.2980    1.4696    7.2700 C   0  0  0  0  0  0           0  0  0
   12.9574    1.3267    6.5678 C   0  0  0  0  0  0           0  0  0
   11.8118    1.2838    7.5661 C   0  0  0  0  0  0           0  0  0
   15.4429    1.5125    6.2710 C   0  0  0  0  0  0           0  0  0
   10.4725    1.1302    6.8636 C   0  0  0  0  0  0           0  0  0
   16.7840    1.6538    6.9728 C   0  0  0  0  0  0           0  0  0
    9.3252    1.0992    7.8601 C   0  0  0  0  0  0           0  0  0
   17.9287    1.6962    5.9733 C   0  0  0  0  0  0           0  0  0
    7.9882    0.9404    7.1573 C   0  0  0  0  0  0           0  0  0
   19.2700    1.8357    6.6746 C   0  0  0  0  0  0           0  0  0
    6.8338    0.9043    8.1475 C   0  0  0  0  0  0           0  0  0
   20.4144    1.8779    5.6748 C   0  0  0  0  0  0           0  0  0
    5.4893    0.9237    7.4359 C   0  0  0  0  0  0           0  0  0
   21.7561    2.0161    6.3757 C   0  0  0  0  0  0           0  0  0
    5.2678    2.2359    6.6988 C   0  0  0  0  0  0           0  0  0
   22.9001    2.0584    5.3756 C   0  0  0  0  0  0           0  0  0
    4.0186    2.1902    5.8360 C   0  0  0  0  0  0           0  0  0
   24.2422    2.1953    6.0761 C   0  0  0  0  0  0           0  0  0
    3.7990    3.5083    5.1116 C   0  0  0  0  0  0           0  0  0
   25.3858    2.2386    5.0756 C   0  0  0  0  0  0           0  0  0
    2.5519    3.4612    4.2438 C   0  0  0  0  0  0           0  0  0
   26.7282    2.3743    5.7759 C   0  0  0  0  0  0           0  0  0
    2.3379    4.7751    3.5129 C   0  0  0  0  0  0           0  0  0
   27.8716    2.4187    4.7751 C   0  0  0  0  0  0           0  0  0
    1.0843    4.7413    2.6521 C   0  0  0  0  0  0           0  0  0
   29.2141    2.5532    5.4752 C   0  0  0  0  0  0           0  0  0
    0.9801    5.9808    1.7751 C   0  0  0  0  0  0           0  0  0
   30.3588    2.6000    4.4757 C   0  0  0  0  0  0           0  0  0
    2.1004    6.0403    0.7595 C   0  0  0  0  0  0           0  0  0
   31.6953    2.7322    5.1702 C   0  0  0  0  0  0           0  0  0
   14.4456    0.6296    7.9785 H   0  0  0  0  0  0           0  0  0
   14.3036    2.3871    7.8924 H   0  0  0  0  0  0           0  0  0
   12.9520    0.4088    5.9462 H   0  0  0  0  0  0           0  0  0
   12.8101    2.1662    5.8586 H   0  0  0  0  0  0           0  0  0
   11.8125    2.2052    8.1829 H   0  0  0  0  0  0           0  0  0
   11.9624    0.4489    8.2799 H   0  0  0  0  0  0           0  0  0
   15.4365    0.5952    5.6482 H   0  0  0  0  0  0           0  0  0
   15.2960    2.3527    5.5626 H   0  0  0  0  0  0           0  0  0
   10.4696    0.2044    6.2535 H   0  0  0  0  0  0           0  0  0
   10.3251    1.9602    6.1431 H   0  0  0  0  0  0           0  0  0
   16.9309    0.8133    7.6808 H   0  0  0  0  0  0           0  0  0
   16.7908    2.5710    7.5957 H   0  0  0  0  0  0           0  0  0
    9.4719    0.2710    8.5824 H   0  0  0  0  0  0           0  0  0
    9.3271    2.0268    8.4679 H   0  0  0  0  0  0           0  0  0
   17.7822    2.5370    5.2655 H   0  0  0  0  0  0           0  0  0
   17.9211    0.7791    5.3502 H   0  0  0  0  0  0           0  0  0
    7.9883    0.0182    6.5425 H   0  0  0  0  0  0           0  0  0
    7.8204    1.7756    6.4383 H   0  0  0  0  0  0           0  0  0
   19.4167    0.9946    7.3820 H   0  0  0  0  0  0           0  0  0
   19.2780    2.7525    7.2981 H   0  0  0  0  0  0           0  0  0
    6.9095    0.0000    8.7827 H   0  0  0  0  0  0           0  0  0
    6.9033    1.7651    8.8428 H   0  0  0  0  0  0           0  0  0
   20.2682    2.7191    4.9675 H   0  0  0  0  0  0           0  0  0
   20.4060    0.9612    5.0511 H   0  0  0  0  0  0           0  0  0
    5.4284    0.0745    6.7257 H   0  0  0  0  0  0           0  0  0
    4.6743    0.7598    8.1681 H   0  0  0  0  0  0           0  0  0
   21.9025    1.1744    7.0824 H   0  0  0  0  0  0           0  0  0
   21.7649    2.9324    6.9999 H   0  0  0  0  0  0           0  0  0
    5.1999    3.0709    7.4245 H   0  0  0  0  0  0           0  0  0
    6.1664    2.4561    6.0770 H   0  0  0  0  0  0           0  0  0
   22.8909    1.1423    4.7510 H   0  0  0  0  0  0           0  0  0
   22.7542    2.9003    4.6689 H   0  0  0  0  0  0           0  0  0
    3.1364    1.9500    6.4629 H   0  0  0  0  0  0           0  0  0
    4.0948    1.3630    5.1017 H   0  0  0  0  0  0           0  0  0
   24.3885    1.3527    6.7817 H   0  0  0  0  0  0           0  0  0
   24.2513    3.1108    6.7015 H   0  0  0  0  0  0           0  0  0
    4.6841    3.7495    4.4888 H   0  0  0  0  0  0           0  0  0
    3.7187    4.3353    5.8457 H   0  0  0  0  0  0           0  0  0
   25.2402    3.0815    4.3701 H   0  0  0  0  0  0           0  0  0
   25.3761    1.3233    4.4499 H   0  0  0  0  0  0           0  0  0
    2.6300    2.6295    3.5144 H   0  0  0  0  0  0           0  0  0
    1.6649    3.2273    4.8664 H   0  0  0  0  0  0           0  0  0
   26.7378    3.2888    6.4026 H   0  0  0  0  0  0           0  0  0
   26.8747    1.5305    6.4803 H   0  0  0  0  0  0           0  0  0
    3.2135    5.0113    2.8646 H   0  0  0  0  0  0           0  0  0
    2.2755    5.6097    4.2396 H   0  0  0  0  0  0           0  0  0
   27.8616    1.5044    4.1483 H   0  0  0  0  0  0           0  0  0
   27.7258    3.2626    4.0709 H   0  0  0  0  0  0           0  0  0
    0.1862    4.6567    3.2946 H   0  0  0  0  0  0           0  0  0
    1.0849    3.8326    2.0169 H   0  0  0  0  0  0           0  0  0
   29.2244    3.4665    6.1036 H   0  0  0  0  0  0           0  0  0
   29.3614    1.7084    6.1781 H   0  0  0  0  0  0           0  0  0
    0.9958    6.8892    2.4093 H   0  0  0  0  0  0           0  0  0
    0.0000    5.9924    1.2599 H   0  0  0  0  0  0           0  0  0
   30.2116    3.4447    3.7735 H   0  0  0  0  0  0           0  0  0
   30.3476    1.6868    3.8475 H   0  0  0  0  0  0           0  0  0
    2.0026    5.2540    0.0000 H   0  0  0  0  0  0           0  0  0
    2.1244    7.0041    0.2375 H   0  0  0  0  0  0           0  0  0
    3.0763    5.8961    1.2542 H   0  0  0  0  0  0           0  0  0
   31.8869    1.8867    5.8444 H   0  0  0  0  0  0           0  0  0
   32.5190    2.7674    4.4459 H   0  0  0  0  0  0           0  0  0
   31.7494    3.6482    5.7735 H   0  0  0  0  0  0           0  0  0
  1  2  1  0     0  0
  1  4  1  0     0  0
  1 31  1  0     0  0
  1 32  1  0     0  0
  2  3  1  0     0  0
  2 33  1  0     0  0
  2 34  1  0     0  0
  3  5  1  0     0  0
  3 35  1  0     0  0
  3 36  1  0     0  0
  4  6  1  0     0  0
  4 37  1  0     0  0
  4 38  1  0     0  0
  5  7  1  0     0  0
  5 39  1  0     0  0
  5 40  1  0     0  0
  6  8  1  0     0  0
  6 41  1  0     0  0
  6 42  1  0     0  0
  7  9  1  0     0  0
  7 43  1  0     0  0
  7 44  1  0     0  0
  8 10  1  0     0  0
  8 45  1  0     0  0
  8 46  1  0     0  0
  9 11  1  0     0  0
  9 47  1  0     0  0
  9 48  1  0     0  0
 10 12  1  0     0  0
 10 49  1  0     0  0
 10 50  1  0     0  0
 11 13  1  0     0  0
 11 51  1  0     0  0
 11 52  1  0     0  0
 12 14  1  0     0  0
 12 53  1  0     0  0
 12 54  1  0     0  0
 13 15  1  0     0  0
 13 55  1  0     0  0
 13 56  1  0     0  0
 14 16  1  0     0  0
 14 57  1  0     0  0
 14 58  1  0     0  0
 15 17  1  0     0  0
 15 59  1  0     0  0
 15 60  1  0     0  0
 16 18  1  0     0  0
 16 61  1  0     0  0
 16 62  1  0     0  0
 17 19  1  0     0  0
 17 63  1  0     0  0
 17 64  1  0     0  0
 18 20  1  0     0  0
 18 65  1  0     0  0
 18 66  1  0     0  0
 19 21  1  0     0  0
 19 67  1  0     0  0
 19 68  1  0     0  0
 20 22  1  0     0  0
 20 69  1  0     0  0
 20 70  1  0     0  0
 21 23  1  0     0  0
 21 71  1  0     0  0
 21 72  1  0     0  0
 22 24  1  0     0  0
 22 73  1  0     0  0
 22 74  1  0     0  0
 23 25  1  0     0  0
 23 75  1  0     0  0
 23 76  1  0     0  0
 24 26  1  0     0  0
 24 77  1  0     0  0
 24 78  1  0     0  0
 25 27  1  0     0  0
 25 79  1  0     0  0
 25 80  1  0     0  0
 26 28  1  0     0  0
 26 81  1  0     0  0
 26 82  1  0     0  0
 27 29  1  0     0  0
 27 83  1  0     0  0
 27 84  1  0     0  0
 28 30  1  0     0  0
 28 85  1  0     0  0
 28 86  1  0     0  0
 29 87  1  0     0  0
 29 88  1  0     0  0
 29 89  1  0     0  0
 30 90  1  0     0  0
 30 91  1  0     0  0
 30 92  1  0     0  0
M  END
