6419 PENTACHLOROETHANE from chemspider
  Marvin  12300703363D          

  8  7  0  0  0  0            999 V2000
    1.4029    1.6668    0.0982 Cl  0  0  0  0  0  0  0  0  0  0  0  0
    1.4029   -0.7484    1.4925 Cl  0  0  0  0  0  0  0  0  0  0  0  0
    1.4677   -0.7721   -1.3374 Cl  0  0  0  0  0  0  0  0  0  0  0  0
   -1.5165   -1.5891    0.0614 Cl  0  0  0  0  0  0  0  0  0  0  0  0
   -1.5165    0.8477   -1.3455 Cl  0  0  0  0  0  0  0  0  0  0  0  0
    0.7460    0.0316    0.0548 C   0  0  2  0  0  0  0  0  0  0  0  0
   -0.8073    0.0248    0.0429 C   0  0  2  0  0  0  0  0  0  0  0  0
   -1.1791    0.5387    0.9330 H   0  0  0  0  0  0  0  0  0  0  0  0
  1  6  1  0  0  0  0
  2  6  1  0  0  0  0
  3  6  1  0  0  0  0
  4  7  1  0  0  0  0
  5  7  1  0  0  0  0
  6  7  1  0  0  0  0
  7  8  1  0  0  0  0
M  END
$$$$
