Perylene, ID: C198550
  NIST    04042217083D 1   1.00000     0.00000      
NIST Chemistry WebBook
 32 36  0     0  0              1 V2000
    3.8200    2.9556    3.0116 C   0  0  0  0  0  0           0  0  0
    5.2152    2.9961    3.3081 C   0  0  0  0  0  0           0  0  0
    3.1891    3.9884    2.2558 C   0  0  0  0  0  0           0  0  0
    3.0471    1.8698    3.4760 C   0  0  0  0  0  0           0  0  0
    6.0156    4.1206    2.8268 C   0  0  0  0  0  0           0  0  0
    5.7839    1.9759    4.0423 C   0  0  0  0  0  0           0  0  0
    3.9896    5.1128    1.7746 C   0  0  0  0  0  0           0  0  0
    1.8373    3.9087    1.9920 C   0  0  0  0  0  0           0  0  0
    1.6579    1.8215    3.1851 C   0  0  0  0  0  0           0  0  0
    3.6670    0.8377    4.2292 C   0  0  0  0  0  0           0  0  0
    5.3849    5.1535    2.0710 C   0  0  0  0  0  0           0  0  0
    7.3675    4.1999    3.0901 C   0  0  0  0  0  0           0  0  0
    5.0071    0.8948    4.5039 C   0  0  0  0  0  0           0  0  0
    3.4204    6.1331    1.0410 C   0  0  0  0  0  0           0  0  0
    1.0706    2.8222    2.4582 C   0  0  0  0  0  0           0  0  0
    6.1577    6.2393    1.6066 C   0  0  0  0  0  0           0  0  0
    8.1341    5.2863    2.6240 C   0  0  0  0  0  0           0  0  0
    4.1971    7.2145    0.5797 C   0  0  0  0  0  0           0  0  0
    5.5376    7.2712    0.8533 C   0  0  0  0  0  0           0  0  0
    7.5469    6.2876    1.8976 C   0  0  0  0  0  0           0  0  0
    6.8608    2.0103    4.2692 H   0  0  0  0  0  0           0  0  0
    1.3536    4.7073    1.4086 H   0  0  0  0  0  0           0  0  0
    1.0688    0.9732    3.5513 H   0  0  0  0  0  0           0  0  0
    3.0560    0.0000    4.5841 H   0  0  0  0  0  0           0  0  0
    7.8510    3.4010    3.6734 H   0  0  0  0  0  0           0  0  0
    5.4910    0.1020    5.0840 H   0  0  0  0  0  0           0  0  0
    2.3434    6.0988    0.8145 H   0  0  0  0  0  0           0  0  0
    0.0000    2.7908    2.2305 H   0  0  0  0  0  0           0  0  0
    9.2048    5.3175    2.8512 H   0  0  0  0  0  0           0  0  0
    3.7128    8.0072    0.0000 H   0  0  0  0  0  0           0  0  0
    6.1484    8.1088    0.4980 H   0  0  0  0  0  0           0  0  0
    8.1363    7.1360    1.5316 H   0  0  0  0  0  0           0  0  0
  1  2  1  0     0  0
  3  1  1  0     0  0
  1  4  2  0     0  0
  5  2  1  0     0  0
  2  6  2  0     0  0
  3  7  1  0     0  0
  8  3  2  0     0  0
  4  9  1  0     0  0
 10  4  1  0     0  0
  5 11  2  0     0  0
 12  5  1  0     0  0
  6 13  1  0     0  0
  6 21  1  0     0  0
 11  7  1  0     0  0
  7 14  2  0     0  0
 15  8  1  0     0  0
  8 22  1  0     0  0
  9 15  2  0     0  0
  9 23  1  0     0  0
 13 10  2  0     0  0
 10 24  1  0     0  0
 16 11  1  0     0  0
 17 12  2  0     0  0
 12 25  1  0     0  0
 13 26  1  0     0  0
 14 18  1  0     0  0
 14 27  1  0     0  0
 15 28  1  0     0  0
 19 16  1  0     0  0
 16 20  2  0     0  0
 20 17  1  0     0  0
 17 29  1  0     0  0
 18 19  2  0     0  0
 18 30  1  0     0  0
 19 31  1  0     0  0
 20 32  1  0     0  0
M  END
