Benzene, propyl-, ID: C103651
  NIST    04042217083D 1   1.00000     0.00000      
NIST Chemistry WebBook
 21 21  0     0  0              1 V2000
    1.0661    2.9749    2.6475 C   0  0  0  0  0  0           0  0  0
    1.2808    1.4818    2.4487 C   0  0  0  0  0  0           0  0  0
    2.7253    1.1262    2.2933 C   0  0  0  0  0  0           0  0  0
    1.4633    3.7862    1.4355 C   0  0  0  0  0  0           0  0  0
    3.2467    0.7114    1.0724 C   0  0  0  0  0  0           0  0  0
    3.5563    1.1654    3.4088 C   0  0  0  0  0  0           0  0  0
    4.5854    0.3307    0.9654 C   0  0  0  0  0  0           0  0  0
    4.8893    0.7975    3.3089 C   0  0  0  0  0  0           0  0  0
    5.4159    0.3751    2.0884 C   0  0  0  0  0  0           0  0  0
    1.6394    3.3197    3.5307 H   0  0  0  0  0  0           0  0  0
    0.0000    3.1585    2.8853 H   0  0  0  0  0  0           0  0  0
    0.7082    1.1385    1.5639 H   0  0  0  0  0  0           0  0  0
    0.8648    0.9249    3.3106 H   0  0  0  0  0  0           0  0  0
    0.8516    3.5362    0.5591 H   0  0  0  0  0  0           0  0  0
    2.5116    3.6095    1.1609 H   0  0  0  0  0  0           0  0  0
    1.3471    4.8621    1.6226 H   0  0  0  0  0  0           0  0  0
    2.6019    0.6915    0.1845 H   0  0  0  0  0  0           0  0  0
    3.1572    1.5024    4.3751 H   0  0  0  0  0  0           0  0  0
    4.9765    0.0000    0.0000 H   0  0  0  0  0  0           0  0  0
    5.5328    0.8361    4.1935 H   0  0  0  0  0  0           0  0  0
    6.4625    0.0709    2.0120 H   0  0  0  0  0  0           0  0  0
  1  2  1  0     0  0
  1  4  1  0     0  0
  1 10  1  0     0  0
  1 11  1  0     0  0
  2  3  1  0     0  0
  2 12  1  0     0  0
  2 13  1  0     0  0
  5  3  2  0     0  0
  3  6  1  0     0  0
  4 14  1  0     0  0
  4 15  1  0     0  0
  4 16  1  0     0  0
  7  5  1  0     0  0
  5 17  1  0     0  0
  6  8  2  0     0  0
  6 18  1  0     0  0
  9  7  2  0     0  0
  7 19  1  0     0  0
  8  9  1  0     0  0
  8 20  1  0     0  0
  9 21  1  0     0  0
M  END
