Tetrachloroethylene, ID: C127184
  NIST    04042217083D 1   1.00000     0.00000      
NIST Chemistry WebBook
  6  5  0     0  0              1 V2000
    2.3975    2.2318    1.0365 C   0  0  0  0  0  0           0  0  0
    1.3133    1.4419    0.9499 C   0  0  0  0  0  0           0  0  0
    0.0000    1.8460    0.0000 Cl  0  0  0  0  0  0           0  0  0
    1.2025    0.0000    1.7860 Cl  0  0  0  0  0  0           0  0  0
    3.7107    1.8275    1.9865 Cl  0  0  0  0  0  0           0  0  0
    2.5089    3.6737    0.2005 Cl  0  0  0  0  0  0           0  0  0
  1  2  2  0     0  0
  1  5  1  0     0  0
  1  6  1  0     0  0
  2  3  1  0     0  0
  2  4  1  0     0  0
M  END
