
 OpenBabel07221011413D

 12 11  0  0  0  0  0  0  0  0999 V2000
    2.4482    2.5205    0.5379 O   0  0  0  0  0
    1.2367    1.8914    0.4001 C   0  0  0  0  0
    2.6688    3.5189   -0.4047 C   0  0  0  0  0
    1.1337    0.7757    1.3942 C   0  0  0  0  0
    0.3686    2.1463   -0.4263 O   0  0  0  0  0
    3.2648    4.6690   -0.0902 C   0  0  0  0  0
    2.3380    3.2640   -1.4040 H   0  0  0  0  0
    1.5757    1.0725    2.3504 H   0  0  0  0  0
    1.6411   -0.1102    1.0020 H   0  0  0  0  0
    0.0784    0.5460    1.5716 H   0  0  0  0  0
    3.4342    5.4302   -0.8447 H   0  0  0  0  0
    3.5829    4.8788    0.9259 H   0  0  0  0  0
  1  2  1  0  0  0
  1  3  1  0  0  0
  2  4  1  0  0  0
  2  5  2  0  0  0
  3  6  2  0  0  0
  3  7  1  0  0  0
  4  8  1  0  0  0
  4  9  1  0  0  0
  4 10  1  0  0  0
  6 11  1  0  0  0
  6 12  1  0  0  0
M  END
