n-Tetratriacontane, ID: C14167590
  NIST    04042217083D 1   1.00000     0.00000      
NIST Chemistry WebBook
104103  0     0  0              1 V2000
   22.2409    1.7002    2.0917 C   0  0  0  0  0  0           0  0  0
   20.9768    1.1008    1.4973 C   0  0  0  0  0  0           0  0  0
   19.7306    1.6954    2.1332 C   0  0  0  0  0  0           0  0  0
   23.4865    1.1072    1.4533 C   0  0  0  0  0  0           0  0  0
   18.4669    1.1059    1.5282 C   0  0  0  0  0  0           0  0  0
   24.7509    1.7076    2.0462 C   0  0  0  0  0  0           0  0  0
   17.2203    1.6953    2.1681 C   0  0  0  0  0  0           0  0  0
   25.9961    1.1150    1.4065 C   0  0  0  0  0  0           0  0  0
   15.9568    1.1141    1.5544 C   0  0  0  0  0  0           0  0  0
   27.2615    1.7146    1.9983 C   0  0  0  0  0  0           0  0  0
   14.7100    1.6975    2.1991 C   0  0  0  0  0  0           0  0  0
   28.5058    1.1225    1.3565 C   0  0  0  0  0  0           0  0  0
   13.4467    1.1226    1.5789 C   0  0  0  0  0  0           0  0  0
   29.7715    1.7222    1.9475 C   0  0  0  0  0  0           0  0  0
   12.1996    1.7001    2.2283 C   0  0  0  0  0  0           0  0  0
   31.0155    1.1304    1.3048 C   0  0  0  0  0  0           0  0  0
   10.9368    1.1307    1.6022 C   0  0  0  0  0  0           0  0  0
   32.2814    1.7298    1.8958 C   0  0  0  0  0  0           0  0  0
    9.6891    1.7039    2.2548 C   0  0  0  0  0  0           0  0  0
   33.5252    1.1388    1.2520 C   0  0  0  0  0  0           0  0  0
    8.4266    1.1402    1.6233 C   0  0  0  0  0  0           0  0  0
   34.7912    1.7368    1.8438 C   0  0  0  0  0  0           0  0  0
    7.1788    1.7095    2.2788 C   0  0  0  0  0  0           0  0  0
   36.0348    1.1451    1.2003 C   0  0  0  0  0  0           0  0  0
    5.9164    1.1472    1.6453 C   0  0  0  0  0  0           0  0  0
   37.3012    1.7428    1.7920 C   0  0  0  0  0  0           0  0  0
    4.6683    1.7115    2.3046 C   0  0  0  0  0  0           0  0  0
   38.5446    1.1519    1.1477 C   0  0  0  0  0  0           0  0  0
    3.4063    1.1513    1.6689 C   0  0  0  0  0  0           0  0  0
   39.8110    1.7492    1.7392 C   0  0  0  0  0  0           0  0  0
    2.1565    1.7145    2.3265 C   0  0  0  0  0  0           0  0  0
   41.0555    1.1604    1.0945 C   0  0  0  0  0  0           0  0  0
    0.8999    1.1584    1.6956 C   0  0  0  0  0  0           0  0  0
   42.3165    1.7534    1.6814 C   0  0  0  0  0  0           0  0  0
   22.2605    1.5320    3.1874 H   0  0  0  0  0  0           0  0  0
   22.2358    2.8011    1.9608 H   0  0  0  0  0  0           0  0  0
   20.9810    0.0000    1.6307 H   0  0  0  0  0  0           0  0  0
   20.9589    1.2665    0.4012 H   0  0  0  0  0  0           0  0  0
   19.7439    1.5193    3.2278 H   0  0  0  0  0  0           0  0  0
   19.7311    2.7973    2.0099 H   0  0  0  0  0  0           0  0  0
   23.4662    1.2739    0.3573 H   0  0  0  0  0  0           0  0  0
   23.4923    0.0064    1.5858 H   0  0  0  0  0  0           0  0  0
   18.4685    0.0036    1.6475 H   0  0  0  0  0  0           0  0  0
   18.4518    1.2857    0.4341 H   0  0  0  0  0  0           0  0  0
   24.7451    2.8085    1.9150 H   0  0  0  0  0  0           0  0  0
   24.7719    1.5395    3.1420 H   0  0  0  0  0  0           0  0  0
   17.2228    2.7984    2.0569 H   0  0  0  0  0  0           0  0  0
   17.2314    1.5074    3.2608 H   0  0  0  0  0  0           0  0  0
   25.9750    1.2824    0.3106 H   0  0  0  0  0  0           0  0  0
   26.0022    0.0142    1.5383 H   0  0  0  0  0  0           0  0  0
   15.9437    1.3063    0.4624 H   0  0  0  0  0  0           0  0  0
   15.9571    0.0105    1.6611 H   0  0  0  0  0  0           0  0  0
   27.2558    2.8157    1.8680 H   0  0  0  0  0  0           0  0  0
   27.2839    1.5458    3.0940 H   0  0  0  0  0  0           0  0  0
   14.7127    2.8018    2.0983 H   0  0  0  0  0  0           0  0  0
   14.7201    1.4992    3.2900 H   0  0  0  0  0  0           0  0  0
   28.4829    1.2905    0.2608 H   0  0  0  0  0  0           0  0  0
   28.5118    0.0215    1.4878 H   0  0  0  0  0  0           0  0  0
   13.4345    1.3251    0.4889 H   0  0  0  0  0  0           0  0  0
   13.4464    0.0181    1.6759 H   0  0  0  0  0  0           0  0  0
   29.7653    2.8234    1.8172 H   0  0  0  0  0  0           0  0  0
   29.7946    1.5533    3.0431 H   0  0  0  0  0  0           0  0  0
   12.2090    1.4921    3.3173 H   0  0  0  0  0  0           0  0  0
   12.2022    2.8052    2.1374 H   0  0  0  0  0  0           0  0  0
   30.9926    1.2992    0.2092 H   0  0  0  0  0  0           0  0  0
   31.0214    0.0294    1.4351 H   0  0  0  0  0  0           0  0  0
   10.9360    0.0255    1.6897 H   0  0  0  0  0  0           0  0  0
   10.9260    1.3417    0.5137 H   0  0  0  0  0  0           0  0  0
   32.2752    2.8310    1.7664 H   0  0  0  0  0  0           0  0  0
   32.3050    1.5598    2.9912 H   0  0  0  0  0  0           0  0  0
    9.6975    1.4875    3.3421 H   0  0  0  0  0  0           0  0  0
    9.6926    2.8097    2.1724 H   0  0  0  0  0  0           0  0  0
   33.5021    1.3093    0.1567 H   0  0  0  0  0  0           0  0  0
   33.5309    0.0375    1.3807 H   0  0  0  0  0  0           0  0  0
    8.4167    1.3594    0.5363 H   0  0  0  0  0  0           0  0  0
    8.4245    0.0343    1.7035 H   0  0  0  0  0  0           0  0  0
   34.7860    2.8381    1.7153 H   0  0  0  0  0  0           0  0  0
   34.8144    1.5664    2.9392 H   0  0  0  0  0  0           0  0  0
    7.1813    2.8155    2.2011 H   0  0  0  0  0  0           0  0  0
    7.1879    1.4883    3.3653 H   0  0  0  0  0  0           0  0  0
   36.0402    0.0439    1.3292 H   0  0  0  0  0  0           0  0  0
   36.0119    1.3155    0.1049 H   0  0  0  0  0  0           0  0  0
    5.9056    1.3718    0.5597 H   0  0  0  0  0  0           0  0  0
    5.9163    0.0409    1.7190 H   0  0  0  0  0  0           0  0  0
   37.3243    1.5713    2.8872 H   0  0  0  0  0  0           0  0  0
   37.2957    2.8442    1.6640 H   0  0  0  0  0  0           0  0  0
    4.6780    1.4848    3.3898 H   0  0  0  0  0  0           0  0  0
    4.6695    2.8180    2.2328 H   0  0  0  0  0  0           0  0  0
   38.5213    1.3227    0.0524 H   0  0  0  0  0  0           0  0  0
   38.5503    0.0505    1.2758 H   0  0  0  0  0  0           0  0  0
    3.4047    0.0449    1.7412 H   0  0  0  0  0  0           0  0  0
    3.3961    1.3773    0.5835 H   0  0  0  0  0  0           0  0  0
   39.8360    1.5769    2.8341 H   0  0  0  0  0  0           0  0  0
   39.8055    2.8507    1.6127 H   0  0  0  0  0  0           0  0  0
    2.1587    2.8204    2.2546 H   0  0  0  0  0  0           0  0  0
    2.1673    1.4880    3.4113 H   0  0  0  0  0  0           0  0  0
   41.0303    1.3326    0.0000 H   0  0  0  0  0  0           0  0  0
   41.0606    0.0595    1.2214 H   0  0  0  0  0  0           0  0  0
    0.8521    0.0649    1.7846 H   0  0  0  0  0  0           0  0  0
    0.0000    1.5662    2.1733 H   0  0  0  0  0  0           0  0  0
    0.8422    1.4007    0.6261 H   0  0  0  0  0  0           0  0  0
   42.3896    1.5625    2.7605 H   0  0  0  0  0  0           0  0  0
   42.3565    2.8417    1.5400 H   0  0  0  0  0  0           0  0  0
   43.2127    1.3284    1.2118 H   0  0  0  0  0  0           0  0  0
  1  2  1  0     0  0
  1  4  1  0     0  0
  1 35  1  0     0  0
  1 36  1  0     0  0
  2  3  1  0     0  0
  2 37  1  0     0  0
  2 38  1  0     0  0
  3  5  1  0     0  0
  3 39  1  0     0  0
  3 40  1  0     0  0
  4  6  1  0     0  0
  4 41  1  0     0  0
  4 42  1  0     0  0
  5  7  1  0     0  0
  5 43  1  0     0  0
  5 44  1  0     0  0
  6  8  1  0     0  0
  6 45  1  0     0  0
  6 46  1  0     0  0
  7  9  1  0     0  0
  7 47  1  0     0  0
  7 48  1  0     0  0
  8 10  1  0     0  0
  8 49  1  0     0  0
  8 50  1  0     0  0
  9 11  1  0     0  0
  9 51  1  0     0  0
  9 52  1  0     0  0
 10 12  1  0     0  0
 10 53  1  0     0  0
 10 54  1  0     0  0
 11 13  1  0     0  0
 11 55  1  0     0  0
 11 56  1  0     0  0
 12 14  1  0     0  0
 12 57  1  0     0  0
 12 58  1  0     0  0
 13 15  1  0     0  0
 13 59  1  0     0  0
 13 60  1  0     0  0
 14 16  1  0     0  0
 14 61  1  0     0  0
 14 62  1  0     0  0
 15 17  1  0     0  0
 15 63  1  0     0  0
 15 64  1  0     0  0
 16 18  1  0     0  0
 16 65  1  0     0  0
 16 66  1  0     0  0
 17 19  1  0     0  0
 17 67  1  0     0  0
 17 68  1  0     0  0
 18 20  1  0     0  0
 18 69  1  0     0  0
 18 70  1  0     0  0
 19 21  1  0     0  0
 19 71  1  0     0  0
 19 72  1  0     0  0
 20 22  1  0     0  0
 20 73  1  0     0  0
 20 74  1  0     0  0
 21 23  1  0     0  0
 21 75  1  0     0  0
 21 76  1  0     0  0
 22 24  1  0     0  0
 22 77  1  0     0  0
 22 78  1  0     0  0
 23 25  1  0     0  0
 23 79  1  0     0  0
 23 80  1  0     0  0
 24 26  1  0     0  0
 24 81  1  0     0  0
 24 82  1  0     0  0
 25 27  1  0     0  0
 25 83  1  0     0  0
 25 84  1  0     0  0
 26 28  1  0     0  0
 26 85  1  0     0  0
 26 86  1  0     0  0
 27 29  1  0     0  0
 27 87  1  0     0  0
 27 88  1  0     0  0
 28 30  1  0     0  0
 28 89  1  0     0  0
 28 90  1  0     0  0
 29 31  1  0     0  0
 29 91  1  0     0  0
 29 92  1  0     0  0
 30 32  1  0     0  0
 30 93  1  0     0  0
 30 94  1  0     0  0
 31 33  1  0     0  0
 31 95  1  0     0  0
 31 96  1  0     0  0
 32 34  1  0     0  0
 32 97  1  0     0  0
 32 98  1  0     0  0
 33 99  1  0     0  0
 33100  1  0     0  0
 33101  1  0     0  0
 34102  1  0     0  0
 34103  1  0     0  0
 34104  1  0     0  0
M  END
