
 OpenBabel08311019073D

 41 43  0  0  0  0  0  0  0  0999 V2000
   -0.7974    1.2113    0.4684 S   0  0  0  0  0
   -2.3353   -2.2594   -1.4274 O   0  0  0  0  0
   -5.4147    0.9493   -0.9918 O   0  0  0  0  0
   -5.2853   -0.3382    0.8194 O   0  0  0  0  0
    2.0559   -1.9075    1.2268 O   0  0  0  0  0
   -2.5175   -0.7627    0.3673 N   0  0  0  0  0
    0.5800   -1.4656   -0.4555 N   0  0  0  0  0
   -1.2578   -0.4597    1.0741 C   0  0  0  0  0
   -2.5722    1.6547    0.1435 C   0  0  0  0  0
   -3.2042    0.3303   -0.3189 C   0  0  0  0  0
   -0.6262   -1.6916    0.3861 C   0  0  0  0  0
   -1.9587   -1.7546   -0.3935 C   0  0  0  0  0
   -3.1671    2.2166    1.4415 C   0  0  0  0  0
   -2.6036    2.7196   -0.9563 C   0  0  0  0  0
   -4.7068    0.2429   -0.0845 C   0  0  0  0  0
    1.8518   -1.5845    0.0598 C   0  0  0  0  0
    2.9600   -1.3178   -0.9442 C   0  0  0  0  0
    3.8987   -0.2215   -0.5111 C   0  0  0  0  0
    3.5819    1.1234   -0.7469 C   0  0  0  0  0
    5.0936   -0.5328    0.1523 C   0  0  0  0  0
    4.4543    2.1355   -0.3435 C   0  0  0  0  0
    5.9640    0.4809    0.5542 C   0  0  0  0  0
    5.6462    1.8140    0.3039 C   0  0  0  0  0
   -1.3640   -0.5369    2.1608 H   0  0  0  0  0
   -3.0471    0.1909   -1.3982 H   0  0  0  0  0
   -0.5040   -2.5595    1.0460 H   0  0  0  0  0
   -3.1803    1.4741    2.2472 H   0  0  0  0  0
   -2.6061    3.0893    1.7965 H   0  0  0  0  0
   -4.2003    2.5489    1.2869 H   0  0  0  0  0
   -2.0770    3.6316   -0.6512 H   0  0  0  0  0
   -2.1430    2.3612   -1.8845 H   0  0  0  0  0
   -3.6338    3.0060   -1.1942 H   0  0  0  0  0
    0.4627   -1.1612   -1.4155 H   0  0  0  0  0
   -6.3499    0.7917   -0.7376 H   0  0  0  0  0
    3.5067   -2.2573   -1.0923 H   0  0  0  0  0
    2.5417   -1.0624   -1.9256 H   0  0  0  0  0
    2.6528    1.3948   -1.2432 H   0  0  0  0  0
    5.3493   -1.5681    0.3675 H   0  0  0  0  0
    4.2023    3.1761   -0.5296 H   0  0  0  0  0
    6.8876    0.2290    1.0691 H   0  0  0  0  0
    6.3234    2.6025    0.6206 H   0  0  0  0  0
  1  8  1  0  0  0
  1  9  1  0  0  0
  2 12  2  0  0  0
  3 15  1  0  0  0
  3 34  1  0  0  0
  4 15  2  0  0  0
  5 16  2  0  0  0
  6  8  1  0  0  0
  6 10  1  0  0  0
  6 12  1  0  0  0
  7 11  1  0  0  0
  7 16  1  0  0  0
  7 33  1  0  0  0
  8 11  1  0  0  0
  8 24  1  0  0  0
  9 10  1  0  0  0
  9 13  1  0  0  0
  9 14  1  0  0  0
 10 15  1  0  0  0
 10 25  1  0  0  0
 11 12  1  0  0  0
 11 26  1  0  0  0
 13 27  1  0  0  0
 13 28  1  0  0  0
 13 29  1  0  0  0
 14 30  1  0  0  0
 14 31  1  0  0  0
 14 32  1  0  0  0
 16 17  1  0  0  0
 17 18  1  0  0  0
 17 35  1  0  0  0
 17 36  1  0  0  0
 18 19  2  0  0  0
 18 20  1  0  0  0
 19 21  1  0  0  0
 19 37  1  0  0  0
 20 22  2  0  0  0
 20 38  1  0  0  0
 21 23  2  0  0  0
 21 39  1  0  0  0
 22 23  1  0  0  0
 22 40  1  0  0  0
 23 41  1  0  0  0
M  END
