n-Tetracosane, ID: C646311
 OpenBabel09011009383D
NIST Chemistry WebBook
 74 73  0  0  0  0  0  0  0  0999 V2000
    3.0519    4.6981    7.8347 C   0  0  0  0  0
    1.7824    4.6952    6.9821 C   0  0  0  0  0
    0.5328    4.4708    7.8342 C   0  0  0  0  0
    4.2919    4.9335    6.9707 C   0  0  0  0  0
   -0.7262    4.4514    6.9664 C   0  0  0  0  0
    5.5723    4.9154    7.8064 C   0  0  0  0  0
   -1.9854    4.2376    7.8074 C   0  0  0  0  0
    6.8016    5.1661    6.9319 C   0  0  0  0  0
   -3.2358    4.2090    6.9269 C   0  0  0  0  0
    8.0912    5.1262    7.7527 C   0  0  0  0  0
   -4.5034    4.0086    7.7580 C   0  0  0  0  0
    9.3139    5.3974    6.8740 C   0  0  0  0  0
   -5.7454    3.9752    6.8664 C   0  0  0  0  0
   10.6083    5.3371    7.6859 C   0  0  0  0  0
   -7.0216    3.7908    7.6886 C   0  0  0  0  0
   11.8277    5.6302    6.8107 C   0  0  0  0  0
   -8.2571    3.7478    6.7877 C   0  0  0  0  0
   13.1231    5.5475    7.6195 C   0  0  0  0  0
   -9.5389    3.5793    7.6039 C   0  0  0  0  0
   14.3444    5.8598    6.7525 C   0  0  0  0  0
  -10.7680    3.5201    6.6973 C   0  0  0  0  0
   15.6389    5.7391    7.5554 C   0  0  0  0  0
  -12.0482    3.3643    7.5022 C   0  0  0  0  0
   16.8555    6.0633    6.7041 C   0  0  0  0  0
    2.9818    5.4815    8.5991 H   0  0  0  0  0
    3.1447    3.7398    8.3600 H   0  0  0  0  0
    1.8544    3.9075    6.2221 H   0  0  0  0  0
    1.6959    5.6501    6.4495 H   0  0  0  0  0
    0.4514    5.2661    8.5849 H   0  0  0  0  0
    0.6209    3.5212    8.3758 H   0  0  0  0  0
    4.3505    4.1599    6.1951 H   0  0  0  0  0
    4.2018    5.8987    6.4572 H   0  0  0  0  0
   -0.8086    5.3978    6.4180 H   0  0  0  0  0
   -0.6440    3.6521    6.2196 H   0  0  0  0  0
    5.5138    5.6824    8.5880 H   0  0  0  0  0
    5.6687    3.9459    8.3099 H   0  0  0  0  0
   -1.9035    3.2943    8.3610 H   0  0  0  0  0
   -2.0741    5.0416    8.5480 H   0  0  0  0  0
    6.8494    4.4094    6.1394 H   0  0  0  0  0
    6.7087    6.1425    6.4409 H   0  0  0  0  0
   -3.3103    5.1485    6.3655 H   0  0  0  0  0
   -3.1471    3.4000    6.1914 H   0  0  0  0  0
    8.1917    4.1445    8.2313 H   0  0  0  0  0
    8.0417    5.8736    8.5539 H   0  0  0  0  0
   -4.4300    3.0714    8.3224 H   0  0  0  0  0
   -4.5961    4.8211    8.4891 H   0  0  0  0  0
    9.2176    6.3854    6.4074 H   0  0  0  0  0
    9.3550    4.6598    6.0633 H   0  0  0  0  0
   -5.6543    3.1568    6.1417 H   0  0  0  0  0
   -5.8112    4.9080    6.2932 H   0  0  0  0  0
   10.5623    6.0637    8.5063 H   0  0  0  0  0
   10.7103    4.3435    8.1391 H   0  0  0  0  0
   -6.9559    2.8615    8.2677 H   0  0  0  0  0
   -7.1179    4.6141    8.4074 H   0  0  0  0  0
   11.8669    4.9132    5.9816 H   0  0  0  0  0
   11.7318    6.6297    6.3697 H   0  0  0  0  0
   -8.1623    2.9183    6.0763 H   0  0  0  0  0
   -8.3153    4.6721    6.2002 H   0  0  0  0  0
   13.2235    4.5427    8.0479 H   0  0  0  0  0
   13.0796    6.2534    8.4578 H   0  0  0  0  0
   -9.4779    2.6611    8.2006 H   0  0  0  0  0
   -9.6395    4.4154    8.3065 H   0  0  0  0  0
   14.3758    5.1712    5.8990 H   0  0  0  0  0
   14.2552    6.8746    6.3456 H   0  0  0  0  0
  -10.8315    4.4337    6.0946 H   0  0  0  0  0
  -10.6765    2.6781    6.0011 H   0  0  0  0  0
   15.7376    4.7212    7.9495 H   0  0  0  0  0
   15.6102    6.4186    8.4148 H   0  0  0  0  0
  -12.1894    4.2108    8.1819 H   0  0  0  0  0
  -12.9133    3.3180    6.8332 H   0  0  0  0  0
  -12.0288    2.4452    8.0967 H   0  0  0  0  0
   17.7714    5.9535    7.2939 H   0  0  0  0  0
   16.9239    5.3905    5.8426 H   0  0  0  0  0
   16.8121    7.0929    6.3334 H   0  0  0  0  0
  1  2  1  0  0  0
  1  4  1  0  0  0
  1 25  1  0  0  0
  1 26  1  0  0  0
  2  3  1  0  0  0
  2 27  1  0  0  0
  2 28  1  0  0  0
  3  5  1  0  0  0
  3 29  1  0  0  0
  3 30  1  0  0  0
  4  6  1  0  0  0
  4 31  1  0  0  0
  4 32  1  0  0  0
  5  7  1  0  0  0
  5 33  1  0  0  0
  5 34  1  0  0  0
  6  8  1  0  0  0
  6 35  1  0  0  0
  6 36  1  0  0  0
  7  9  1  0  0  0
  7 37  1  0  0  0
  7 38  1  0  0  0
  8 10  1  0  0  0
  8 39  1  0  0  0
  8 40  1  0  0  0
  9 11  1  0  0  0
  9 41  1  0  0  0
  9 42  1  0  0  0
 10 12  1  0  0  0
 10 43  1  0  0  0
 10 44  1  0  0  0
 11 13  1  0  0  0
 11 45  1  0  0  0
 11 46  1  0  0  0
 12 14  1  0  0  0
 12 47  1  0  0  0
 12 48  1  0  0  0
 13 15  1  0  0  0
 13 49  1  0  0  0
 13 50  1  0  0  0
 14 16  1  0  0  0
 14 51  1  0  0  0
 14 52  1  0  0  0
 15 17  1  0  0  0
 15 53  1  0  0  0
 15 54  1  0  0  0
 16 18  1  0  0  0
 16 55  1  0  0  0
 16 56  1  0  0  0
 17 19  1  0  0  0
 17 57  1  0  0  0
 17 58  1  0  0  0
 18 20  1  0  0  0
 18 59  1  0  0  0
 18 60  1  0  0  0
 19 21  1  0  0  0
 19 61  1  0  0  0
 19 62  1  0  0  0
 20 22  1  0  0  0
 20 63  1  0  0  0
 20 64  1  0  0  0
 21 23  1  0  0  0
 21 65  1  0  0  0
 21 66  1  0  0  0
 22 24  1  0  0  0
 22 67  1  0  0  0
 22 68  1  0  0  0
 23 69  1  0  0  0
 23 70  1  0  0  0
 23 71  1  0  0  0
 24 72  1  0  0  0
 24 73  1  0  0  0
 24 74  1  0  0  0
M  END
