Benzene, 1,2,4-trimethyl-, ID: C95636
  NIST    04042217093D 1   1.00000     0.00000      
NIST Chemistry WebBook
 21 21  0     0  0              1 V2000
    1.2617    0.9241    2.1172 C   0  0  0  0  0  0           0  0  0
    2.3293    1.9580    2.1133 C   0  0  0  0  0  0           0  0  0
    2.1274    3.2023    1.4998 C   0  0  0  0  0  0           0  0  0
    3.5505    1.6825    2.7305 C   0  0  0  0  0  0           0  0  0
    0.8407    3.5280    0.8325 C   0  0  0  0  0  0           0  0  0
    3.1554    4.1474    1.5163 C   0  0  0  0  0  0           0  0  0
    4.5716    2.6304    2.7455 C   0  0  0  0  0  0           0  0  0
    4.3667    3.8672    2.1319 C   0  0  0  0  0  0           0  0  0
    5.8654    2.3381    3.4141 C   0  0  0  0  0  0           0  0  0
    0.9672    0.6604    1.0915 H   0  0  0  0  0  0           0  0  0
    1.5777    0.0000    2.6191 H   0  0  0  0  0  0           0  0  0
    0.3630    1.2910    2.6331 H   0  0  0  0  0  0           0  0  0
    3.7087    0.7080    3.2093 H   0  0  0  0  0  0           0  0  0
    0.6455    2.8372    0.0000 H   0  0  0  0  0  0           0  0  0
    0.0000    3.4412    1.5354 H   0  0  0  0  0  0           0  0  0
    0.8288    4.5481    0.4263 H   0  0  0  0  0  0           0  0  0
    3.0043    5.1218    1.0373 H   0  0  0  0  0  0           0  0  0
    5.1663    4.6160    2.1367 H   0  0  0  0  0  0           0  0  0
    6.0101    1.2629    3.5842 H   0  0  0  0  0  0           0  0  0
    6.7145    2.6969    2.8175 H   0  0  0  0  0  0           0  0  0
    5.9142    2.8371    4.3917 H   0  0  0  0  0  0           0  0  0
  1  2  1  0     0  0
  1 10  1  0     0  0
  1 11  1  0     0  0
  1 12  1  0     0  0
  2  3  2  0     0  0
  4  2  1  0     0  0
  3  5  1  0     0  0
  3  6  1  0     0  0
  7  4  2  0     0  0
  4 13  1  0     0  0
  5 14  1  0     0  0
  5 15  1  0     0  0
  5 16  1  0     0  0
  6  8  2  0     0  0
  6 17  1  0     0  0
  8  7  1  0     0  0
  7  9  1  0     0  0
  8 18  1  0     0  0
  9 19  1  0     0  0
  9 20  1  0     0  0
  9 21  1  0     0  0
M  END
