8881
  Marvin  12300703363D          

 11 10  0  0  0  0            999 V2000
    1.8407   -2.1497   -0.0000 Cl  0  0  0  0  0  0  0  0  0  0  0  0
   -2.6403    1.0189   -0.0000 Cl  0  0  0  0  0  0  0  0  0  0  0  0
   -0.3210   -0.4540    0.0000 C   0  0  0  0  0  0  0  0  0  0  0  0
    1.2243   -0.5005    0.0000 C   0  0  0  0  0  0  0  0  0  0  0  0
   -0.8800    0.9874   -0.0000 C   0  0  0  0  0  0  0  0  0  0  0  0
   -0.6929   -0.9799    0.8837 H   0  0  0  0  0  0  0  0  0  0  0  0
   -0.6929   -0.9799   -0.8837 H   0  0  0  0  0  0  0  0  0  0  0  0
    1.6190    0.0018   -0.8854 H   0  0  0  0  0  0  0  0  0  0  0  0
    1.6190    0.0018    0.8854 H   0  0  0  0  0  0  0  0  0  0  0  0
   -0.5380    1.5271   -0.8854 H   0  0  0  0  0  0  0  0  0  0  0  0
   -0.5380    1.5271    0.8854 H   0  0  0  0  0  0  0  0  0  0  0  0
  1  4  1  0  0  0  0
  2  5  1  0  0  0  0
  3  4  1  0  0  0  0
  3  5  1  0  0  0  0
  3  6  1  0  0  0  0
  3  7  1  0  0  0  0
  4  8  1  0  0  0  0
  4  9  1  0  0  0  0
  5 10  1  0  0  0  0
  5 11  1  0  0  0  0
M  END
$$$$
