Naphthalene, 1,4-dimethyl-, ID: C571584
  NIST    04042217093D 1   1.00000     0.00000      
NIST Chemistry WebBook
 24 25  0     0  0              1 V2000
    4.6066    4.7750    1.5071 C   0  0  0  0  0  0           0  0  0
    4.5936    6.1868    1.0391 C   0  0  0  0  0  0           0  0  0
    3.3987    4.0703    1.7974 C   0  0  0  0  0  0           0  0  0
    5.8134    4.1346    1.6549 C   0  0  0  0  0  0           0  0  0
    3.4600    2.7247    2.2258 C   0  0  0  0  0  0           0  0  0
    2.1267    4.6938    1.6674 C   0  0  0  0  0  0           0  0  0
    5.8756    2.7940    2.0839 C   0  0  0  0  0  0           0  0  0
    4.7312    2.0878    2.3671 C   0  0  0  0  0  0           0  0  0
    2.2449    2.0396    2.5069 C   0  0  0  0  0  0           0  0  0
    0.9755    4.0109    1.9453 C   0  0  0  0  0  0           0  0  0
    4.8327    0.6735    2.8154 C   0  0  0  0  0  0           0  0  0
    1.0360    2.6649    2.3697 C   0  0  0  0  0  0           0  0  0
    4.9434    6.2526    0.0000 H   0  0  0  0  0  0           0  0  0
    5.2558    6.8118    1.6527 H   0  0  0  0  0  0           0  0  0
    3.5869    6.6333    1.0768 H   0  0  0  0  0  0           0  0  0
    6.7472    4.6657    1.4376 H   0  0  0  0  0  0           0  0  0
    2.0934    5.7437    1.3395 H   0  0  0  0  0  0           0  0  0
    6.8590    2.3208    2.1884 H   0  0  0  0  0  0           0  0  0
    2.2844    0.9952    2.8382 H   0  0  0  0  0  0           0  0  0
    0.0000    4.4971    1.8432 H   0  0  0  0  0  0           0  0  0
    4.3941    0.5420    3.8146 H   0  0  0  0  0  0           0  0  0
    5.8755    0.3321    2.8694 H   0  0  0  0  0  0           0  0  0
    4.3039    0.0000    2.1268 H   0  0  0  0  0  0           0  0  0
    0.1053    2.1311    2.5875 H   0  0  0  0  0  0           0  0  0
  1  2  1  0     0  0
  3  1  2  0     0  0
  1  4  1  0     0  0
  2 13  1  0     0  0
  2 14  1  0     0  0
  2 15  1  0     0  0
  3  5  1  0     0  0
  6  3  1  0     0  0
  4  7  2  0     0  0
  4 16  1  0     0  0
  8  5  2  0     0  0
  5  9  1  0     0  0
 10  6  2  0     0  0
  6 17  1  0     0  0
  7  8  1  0     0  0
  7 18  1  0     0  0
  8 11  1  0     0  0
  9 12  2  0     0  0
  9 19  1  0     0  0
 12 10  1  0     0  0
 10 20  1  0     0  0
 11 21  1  0     0  0
 11 22  1  0     0  0
 11 23  1  0     0  0
 12 24  1  0     0  0
M  END
