1,6-Heptadiene, ID: C3070539
  NIST    04042217083D 1   1.00000     0.00000      
NIST Chemistry WebBook
 19 18  0     0  0              1 V2000
    3.6287    1.5686    3.4473 C   0  0  0  0  0  0           0  0  0
    3.5837    0.9201    2.0709 C   0  0  0  0  0  0           0  0  0
    3.0424    1.8584    1.0016 C   0  0  0  0  0  0           0  0  0
    4.8253    2.4212    3.6931 C   0  0  0  0  0  0           0  0  0
    1.5886    2.1284    1.1750 C   0  0  0  0  0  0           0  0  0
    5.9688    2.3095    3.0275 C   0  0  0  0  0  0           0  0  0
    1.0640    3.3471    1.1204 C   0  0  0  0  0  0           0  0  0
    2.7108    2.1718    3.6023 H   0  0  0  0  0  0           0  0  0
    3.6122    0.7862    4.2329 H   0  0  0  0  0  0           0  0  0
    4.6092    0.5945    1.7841 H   0  0  0  0  0  0           0  0  0
    2.9689    0.0000    2.1111 H   0  0  0  0  0  0           0  0  0
    3.1892    1.4063    0.0000 H   0  0  0  0  0  0           0  0  0
    3.6279    2.8001    0.9986 H   0  0  0  0  0  0           0  0  0
    4.7173    3.1575    4.4987 H   0  0  0  0  0  0           0  0  0
    0.9560    1.2485    1.3450 H   0  0  0  0  0  0           0  0  0
    6.8384    2.9252    3.2304 H   0  0  0  0  0  0           0  0  0
    6.0960    1.5811    2.2249 H   0  0  0  0  0  0           0  0  0
    1.6564    4.2439    0.9605 H   0  0  0  0  0  0           0  0  0
    0.0000    3.5320    1.2311 H   0  0  0  0  0  0           0  0  0
  1  2  1  0     0  0
  1  4  1  0     0  0
  1  8  1  0     0  0
  1  9  1  0     0  0
  2  3  1  0     0  0
  2 10  1  0     0  0
  2 11  1  0     0  0
  3  5  1  0     0  0
  3 12  1  0     0  0
  3 13  1  0     0  0
  4  6  2  0     0  0
  4 14  1  0     0  0
  5  7  2  0     0  0
  5 15  1  0     0  0
  6 16  1  0     0  0
  6 17  1  0     0  0
  7 18  1  0     0  0
  7 19  1  0     0  0
M  END
