10554 1-CHLORO-2-METHYLPROPANE from www.chemspider.com
  Marvin  12300703363D          

 14 13  0  0  0  0            999 V2000
    2.1189    1.7949   -0.4537 Cl  0  0  0  0  0  0  0  0  0  0  0  0
   -0.1478    0.1574   -0.3166 C   0  0  1  0  0  0  0  0  0  0  0  0
    1.4069    0.1849   -0.3718 C   0  0  0  0  0  0  0  0  0  0  0  0
   -0.6818   -1.2995   -0.3690 C   0  0  0  0  0  0  0  0  0  0  0  0
   -0.7157    0.8978    0.9229 C   0  0  0  0  0  0  0  0  0  0  0  0
   -0.5220    0.6688   -1.2106 H   0  0  0  0  0  0  0  0  0  0  0  0
    1.7620   -0.3451   -1.2586 H   0  0  0  0  0  0  0  0  0  0  0  0
    1.8234   -0.3172    0.5035 H   0  0  0  0  0  0  0  0  0  0  0  0
   -0.3339   -1.8165   -1.2663 H   0  0  0  0  0  0  0  0  0  0  0  0
   -1.7742   -1.3176   -0.3865 H   0  0  0  0  0  0  0  0  0  0  0  0
   -0.3476   -1.8679    0.5012 H   0  0  0  0  0  0  0  0  0  0  0  0
   -1.8088    0.8888    0.9194 H   0  0  0  0  0  0  0  0  0  0  0  0
   -0.3716    0.4267    1.8455 H   0  0  0  0  0  0  0  0  0  0  0  0
   -0.4078    1.9443    0.9406 H   0  0  0  0  0  0  0  0  0  0  0  0
  1  3  1  0  0  0  0
  2  3  1  0  0  0  0
  2  4  1  0  0  0  0
  2  5  1  0  0  0  0
  2  6  1  0  0  0  0
  3  7  1  0  0  0  0
  3  8  1  0  0  0  0
  4  9  1  0  0  0  0
  4 10  1  0  0  0  0
  4 11  1  0  0  0  0
  5 12  1  0  0  0  0
  5 13  1  0  0  0  0
  5 14  1  0  0  0  0
M  END
$$$$
