Nonanal, ID: C124196
  NIST    04042217083D 1   1.00000     0.00000      
NIST Chemistry WebBook
 28 27  0     0  0              1 V2000
    4.0316    1.7678    2.5733 C   0  0  0  0  0  0           0  0  0
    3.0214    2.4161    3.5079 C   0  0  0  0  0  0           0  0  0
    2.8905    1.6388    4.8090 C   0  0  0  0  0  0           0  0  0
    5.4406    1.8443    3.1429 C   0  0  0  0  0  0           0  0  0
    2.0142    2.3687    5.8118 C   0  0  0  0  0  0           0  0  0
    6.4390    1.0423    2.3284 C   0  0  0  0  0  0           0  0  0
    1.8976    1.5928    7.1141 C   0  0  0  0  0  0           0  0  0
    6.7289    1.6931    0.9971 C   0  0  0  0  0  0           0  0  0
    1.0200    2.3138    8.1119 C   0  0  0  0  0  0           0  0  0
    6.9947    1.0619    0.0000 O   0  0  0  0  0  0           0  0  0
    3.9989    2.2613    1.5820 H   0  0  0  0  0  0           0  0  0
    3.7520    0.7106    2.3906 H   0  0  0  0  0  0           0  0  0
    2.0359    2.4818    3.0066 H   0  0  0  0  0  0           0  0  0
    3.3199    3.4631    3.7183 H   0  0  0  0  0  0           0  0  0
    3.9085    1.4666    5.2293 H   0  0  0  0  0  0           0  0  0
    2.4798    0.6292    4.6081 H   0  0  0  0  0  0           0  0  0
    5.4163    1.4700    4.1924 H   0  0  0  0  0  0           0  0  0
    5.7640    2.9028    3.2146 H   0  0  0  0  0  0           0  0  0
    1.0069    2.5368    5.3799 H   0  0  0  0  0  0           0  0  0
    2.4234    3.3800    6.0106 H   0  0  0  0  0  0           0  0  0
    6.0845    0.0000    2.1981 H   0  0  0  0  0  0           0  0  0
    7.3985    0.9658    2.8778 H   0  0  0  0  0  0           0  0  0
    2.9059    1.4291    7.5446 H   0  0  0  0  0  0           0  0  0
    1.4925    0.5806    6.9153 H   0  0  0  0  0  0           0  0  0
    6.7008    2.7953    0.9624 H   0  0  0  0  0  0           0  0  0
    1.4142    3.3103    8.3524 H   0  0  0  0  0  0           0  0  0
    0.0000    2.4511    7.7294 H   0  0  0  0  0  0           0  0  0
    0.9449    1.7551    9.0536 H   0  0  0  0  0  0           0  0  0
  1  2  1  0     0  0
  1  4  1  0     0  0
  1 11  1  0     0  0
  1 12  1  0     0  0
  2  3  1  0     0  0
  2 13  1  0     0  0
  2 14  1  0     0  0
  3  5  1  0     0  0
  3 15  1  0     0  0
  3 16  1  0     0  0
  4  6  1  0     0  0
  4 17  1  0     0  0
  4 18  1  0     0  0
  5  7  1  0     0  0
  5 19  1  0     0  0
  5 20  1  0     0  0
  6  8  1  0     0  0
  6 21  1  0     0  0
  6 22  1  0     0  0
  7  9  1  0     0  0
  7 23  1  0     0  0
  7 24  1  0     0  0
  8 10  2  0     0  0
  8 25  1  0     0  0
  9 26  1  0     0  0
  9 27  1  0     0  0
  9 28  1  0     0  0
M  END
