1-Octene, ID: C111660
  NIST    04042217083D 1   1.00000     0.00000      
NIST Chemistry WebBook
 24 23  0     0  0              1 V2000
    4.2537    0.9655    1.5837 C   0  0  0  0  0  0           0  0  0
    3.3663    2.1054    1.1076 C   0  0  0  0  0  0           0  0  0
    1.9627    1.9979    1.6792 C   0  0  0  0  0  0           0  0  0
    5.6973    1.1482    1.1344 C   0  0  0  0  0  0           0  0  0
    1.0553    3.1240    1.2072 C   0  0  0  0  0  0           0  0  0
    6.3014    2.3786    1.7157 C   0  0  0  0  0  0           0  0  0
    1.3539    4.4397    1.8907 C   0  0  0  0  0  0           0  0  0
    7.5545    2.4460    2.1470 C   0  0  0  0  0  0           0  0  0
    3.8656    0.0000    1.2037 H   0  0  0  0  0  0           0  0  0
    4.2129    0.8904    2.6888 H   0  0  0  0  0  0           0  0  0
    3.3273    2.1183    0.0000 H   0  0  0  0  0  0           0  0  0
    3.8360    3.0738    1.3993 H   0  0  0  0  0  0           0  0  0
    2.0040    1.9858    2.7871 H   0  0  0  0  0  0           0  0  0
    1.5234    1.0231    1.3871 H   0  0  0  0  0  0           0  0  0
    6.2888    0.2504    1.4024 H   0  0  0  0  0  0           0  0  0
    5.7456    1.2243    0.0289 H   0  0  0  0  0  0           0  0  0
    0.0000    2.8441    1.3967 H   0  0  0  0  0  0           0  0  0
    1.1387    3.2409    0.1083 H   0  0  0  0  0  0           0  0  0
    5.6219    3.2461    1.7597 H   0  0  0  0  0  0           0  0  0
    1.2443    4.3641    2.9808 H   0  0  0  0  0  0           0  0  0
    0.6744    5.2299    1.5466 H   0  0  0  0  0  0           0  0  0
    2.3793    4.7803    1.6904 H   0  0  0  0  0  0           0  0  0
    7.9841    3.3549    2.5565 H   0  0  0  0  0  0           0  0  0
    8.2392    1.6026    2.1212 H   0  0  0  0  0  0           0  0  0
  1  2  1  0     0  0
  1  4  1  0     0  0
  1  9  1  0     0  0
  1 10  1  0     0  0
  2  3  1  0     0  0
  2 11  1  0     0  0
  2 12  1  0     0  0
  3  5  1  0     0  0
  3 13  1  0     0  0
  3 14  1  0     0  0
  4  6  1  0     0  0
  4 15  1  0     0  0
  4 16  1  0     0  0
  5  7  1  0     0  0
  5 17  1  0     0  0
  5 18  1  0     0  0
  6  8  2  0     0  0
  6 19  1  0     0  0
  7 20  1  0     0  0
  7 21  1  0     0  0
  7 22  1  0     0  0
  8 23  1  0     0  0
  8 24  1  0     0  0
M  END
