Butane, 2,2-dimethyl-, ID: C75832
  NIST    04042217093D 1   1.00000     0.00000      
NIST Chemistry WebBook
 20 19  0     0  0              1 V2000
    3.2403    1.0703    2.7513 C   0  0  0  0  0  0           0  0  0
    2.1274    1.8645    2.0443 C   0  0  0  0  0  0           0  0  0
    1.9443    1.3724    0.6105 C   0  0  0  0  0  0           0  0  0
    0.8187    1.6605    2.8079 C   0  0  0  0  0  0           0  0  0
    2.4778    3.3511    2.0351 C   0  0  0  0  0  0           0  0  0
    4.5978    1.2153    2.0985 C   0  0  0  0  0  0           0  0  0
    2.9559    0.0000    2.7941 H   0  0  0  0  0  0           0  0  0
    3.3001    1.4076    3.8059 H   0  0  0  0  0  0           0  0  0
    2.8351    1.5722    0.0000 H   0  0  0  0  0  0           0  0  0
    1.7573    0.2909    0.5805 H   0  0  0  0  0  0           0  0  0
    1.0945    1.8695    0.1240 H   0  0  0  0  0  0           0  0  0
    0.9062    1.9862    3.8530 H   0  0  0  0  0  0           0  0  0
    0.5199    0.6038    2.8147 H   0  0  0  0  0  0           0  0  0
    0.0000    2.2329    2.3523 H   0  0  0  0  0  0           0  0  0
    2.4522    3.7753    3.0473 H   0  0  0  0  0  0           0  0  0
    3.4955    3.5061    1.6393 H   0  0  0  0  0  0           0  0  0
    1.7800    3.9269    1.4145 H   0  0  0  0  0  0           0  0  0
    4.6607    0.6612    1.1525 H   0  0  0  0  0  0           0  0  0
    4.8135    2.2733    1.8716 H   0  0  0  0  0  0           0  0  0
    5.3962    0.8409    2.7507 H   0  0  0  0  0  0           0  0  0
  1  2  1  0     0  0
  1  6  1  0     0  0
  1  7  1  0     0  0
  1  8  1  0     0  0
  2  3  1  0     0  0
  2  4  1  0     0  0
  2  5  1  0     0  0
  3  9  1  0     0  0
  3 10  1  0     0  0
  3 11  1  0     0  0
  4 12  1  0     0  0
  4 13  1  0     0  0
  4 14  1  0     0  0
  5 15  1  0     0  0
  5 16  1  0     0  0
  5 17  1  0     0  0
  6 18  1  0     0  0
  6 19  1  0     0  0
  6 20  1  0     0  0
M  END
