2,3-Benzofluorene, ID: C243174
  NIST    04042217083D 1   1.00000     0.00000      
NIST Chemistry WebBook
 29 32  0     0  0              1 V2000
    4.6434    4.5659    1.0765 C   0  0  0  0  0  0           0  0  0
    3.3662    5.2702    1.1634 C   0  0  0  0  0  0           0  0  0
    5.6821    5.5504    0.9394 C   0  0  0  0  0  0           0  0  0
    4.9295    3.2326    1.1066 C   0  0  0  0  0  0           0  0  0
    3.6118    6.6612    1.0816 C   0  0  0  0  0  0           0  0  0
    2.0778    4.7832    1.3016 C   0  0  0  0  0  0           0  0  0
    5.0833    6.9293    0.9361 C   0  0  0  0  0  0           0  0  0
    6.9884    5.1802    0.8352 C   0  0  0  0  0  0           0  0  0
    6.2917    2.8244    0.9989 C   0  0  0  0  0  0           0  0  0
    2.5667    7.5634    1.1388 C   0  0  0  0  0  0           0  0  0
    1.0267    5.7014    1.3586 C   0  0  0  0  0  0           0  0  0
    7.3132    3.7904    0.8644 C   0  0  0  0  0  0           0  0  0
    6.6387    1.4481    1.0254 C   0  0  0  0  0  0           0  0  0
    1.2671    7.0679    1.2787 C   0  0  0  0  0  0           0  0  0
    8.6622    3.3616    0.7587 C   0  0  0  0  0  0           0  0  0
    7.9484    1.0610    0.9215 C   0  0  0  0  0  0           0  0  0
    8.9700    2.0271    0.7867 C   0  0  0  0  0  0           0  0  0
    4.1398    2.4801    1.2109 H   0  0  0  0  0  0           0  0  0
    1.8905    3.7065    1.3641 H   0  0  0  0  0  0           0  0  0
    5.4707    7.5460    1.7681 H   0  0  0  0  0  0           0  0  0
    5.3098    7.4724    0.0000 H   0  0  0  0  0  0           0  0  0
    7.7886    5.9206    0.7304 H   0  0  0  0  0  0           0  0  0
    2.7506    8.6402    1.0760 H   0  0  0  0  0  0           0  0  0
    0.0000    5.3368    1.4678 H   0  0  0  0  0  0           0  0  0
    5.8415    0.7035    1.1302 H   0  0  0  0  0  0           0  0  0
    0.4276    7.7695    1.3256 H   0  0  0  0  0  0           0  0  0
    9.4506    4.1155    0.6543 H   0  0  0  0  0  0           0  0  0
    8.2176    0.0000    0.9417 H   0  0  0  0  0  0           0  0  0
   10.0102    1.6950    0.7054 H   0  0  0  0  0  0           0  0  0
  1  2  1  0     0  0
  1  3  1  0     0  0
  4  1  2  0     0  0
  5  2  1  0     0  0
  2  6  2  0     0  0
  7  3  1  0     0  0
  3  8  2  0     0  0
  9  4  1  0     0  0
  4 18  1  0     0  0
  5  7  1  0     0  0
 10  5  2  0     0  0
  6 11  1  0     0  0
  6 19  1  0     0  0
  7 20  1  0     0  0
  7 21  1  0     0  0
  8 12  1  0     0  0
  8 22  1  0     0  0
  9 12  2  0     0  0
 13  9  1  0     0  0
 14 10  1  0     0  0
 10 23  1  0     0  0
 11 14  2  0     0  0
 11 24  1  0     0  0
 12 15  1  0     0  0
 16 13  2  0     0  0
 13 25  1  0     0  0
 14 26  1  0     0  0
 15 17  2  0     0  0
 15 27  1  0     0  0
 17 16  1  0     0  0
 16 28  1  0     0  0
 17 29  1  0     0  0
M  END
