11583 2 HEXANONE from www.chemspider.com
  Marvin  12300703363D          

 19 18  0  0  0  0            999 V2000
   -3.0543    1.4327    0.0000 O   0  0  0  0  0  0  0  0  0  0  0  0
    0.2284   -0.2348    0.0000 C   0  0  0  0  0  0  0  0  0  0  0  0
    0.7579   -1.6911    0.0000 C   0  0  0  0  0  0  0  0  0  0  0  0
   -1.3112   -0.0485    0.0000 C   0  0  0  0  0  0  0  0  0  0  0  0
    2.3037   -1.7453    0.0000 C   0  0  0  0  0  0  0  0  0  0  0  0
   -1.8353    1.3143   -0.0000 C   0  0  0  0  0  0  0  0  0  0  0  0
   -1.0864    2.5589   -0.0000 C   0  0  0  0  0  0  0  0  0  0  0  0
    0.6293    0.2635    0.8872 H   0  0  0  0  0  0  0  0  0  0  0  0
    0.6293    0.2635   -0.8872 H   0  0  0  0  0  0  0  0  0  0  0  0
    0.3877   -2.2197   -0.8825 H   0  0  0  0  0  0  0  0  0  0  0  0
    0.3877   -2.2197    0.8825 H   0  0  0  0  0  0  0  0  0  0  0  0
   -1.7129   -0.5601   -0.8796 H   0  0  0  0  0  0  0  0  0  0  0  0
   -1.7129   -0.5601    0.8796 H   0  0  0  0  0  0  0  0  0  0  0  0
    2.6529   -2.7793    0.0000 H   0  0  0  0  0  0  0  0  0  0  0  0
    2.7071   -1.2491   -0.8857 H   0  0  0  0  0  0  0  0  0  0  0  0
    2.7071   -1.2491    0.8857 H   0  0  0  0  0  0  0  0  0  0  0  0
   -1.3368    3.1445   -0.8866 H   0  0  0  0  0  0  0  0  0  0  0  0
   -1.3368    3.1445    0.8866 H   0  0  0  0  0  0  0  0  0  0  0  0
   -0.0044    2.4351   -0.0000 H   0  0  0  0  0  0  0  0  0  0  0  0
  1  6  2  0  0  0  0
  2  3  1  0  0  0  0
  2  4  1  0  0  0  0
  2  8  1  0  0  0  0
  2  9  1  0  0  0  0
  3  5  1  0  0  0  0
  3 10  1  0  0  0  0
  3 11  1  0  0  0  0
  4  6  1  0  0  0  0
  4 12  1  0  0  0  0
  4 13  1  0  0  0  0
  5 14  1  0  0  0  0
  5 15  1  0  0  0  0
  5 16  1  0  0  0  0
  6  7  1  0  0  0  0
  7 17  1  0  0  0  0
  7 18  1  0  0  0  0
  7 19  1  0  0  0  0
M  END
$$$$
