Butane, 2-methyl-, ID: C78784
  NIST    04042217093D 1   1.00000     0.00000      
NIST Chemistry WebBook
 17 16  0     0  0              1 V2000
    3.3523    1.9210    2.5767 C   0  0  0  0  0  0           0  0  0
    2.1758    1.0557    2.1208 C   0  0  0  0  0  0           0  0  0
    2.3625    0.6201    0.6777 C   0  0  0  0  0  0           0  0  0
    0.8654    1.8090    2.2855 C   0  0  0  0  0  0           0  0  0
    3.2821    2.2170    4.0586 C   0  0  0  0  0  0           0  0  0
    4.3063    1.4121    2.3357 H   0  0  0  0  0  0           0  0  0
    3.3632    2.8670    1.9994 H   0  0  0  0  0  0           0  0  0
    2.1435    0.1436    2.7662 H   0  0  0  0  0  0           0  0  0
    3.2806    0.0315    0.5509 H   0  0  0  0  0  0           0  0  0
    2.4287    1.4821    0.0000 H   0  0  0  0  0  0           0  0  0
    1.5226    0.0000    0.3389 H   0  0  0  0  0  0           0  0  0
    0.7788    2.6361    1.5683 H   0  0  0  0  0  0           0  0  0
    0.0000    1.1516    2.1382 H   0  0  0  0  0  0           0  0  0
    0.7989    2.2420    3.2977 H   0  0  0  0  0  0           0  0  0
    2.2879    2.6131    4.3267 H   0  0  0  0  0  0           0  0  0
    3.4456    1.3145    4.6619 H   0  0  0  0  0  0           0  0  0
    4.0334    2.9569    4.3594 H   0  0  0  0  0  0           0  0  0
  1  2  1  0     0  0
  1  5  1  0     0  0
  1  6  1  0     0  0
  1  7  1  0     0  0
  2  3  1  0     0  0
  2  4  1  0     0  0
  2  8  1  0     0  0
  3  9  1  0     0  0
  3 10  1  0     0  0
  3 11  1  0     0  0
  4 12  1  0     0  0
  4 13  1  0     0  0
  4 14  1  0     0  0
  5 15  1  0     0  0
  5 16  1  0     0  0
  5 17  1  0     0  0
M  END
