2-Pentene, ID: C109682
  NIST    04042217083D 1   1.00000     0.00000      
NIST Chemistry WebBook
 15 14  0     0  0              1 V2000
    4.4083    0.9312    0.8284 C   0  0  0  0  0  0           0  0  0
    3.1135    0.6312    1.4970 C   0  0  0  0  0  0           0  0  0
    1.9380    1.0435    1.0204 C   0  0  0  0  0  0           0  0  0
    5.4283    1.4578    1.8150 C   0  0  0  0  0  0           0  0  0
    0.6478    0.7308    1.6733 C   0  0  0  0  0  0           0  0  0
    4.2735    1.6553    0.0000 H   0  0  0  0  0  0           0  0  0
    4.7798    0.0000    0.3548 H   0  0  0  0  0  0           0  0  0
    3.1754    0.0368    2.4176 H   0  0  0  0  0  0           0  0  0
    1.8793    1.6428    0.1030 H   0  0  0  0  0  0           0  0  0
    5.6130    0.7442    2.6289 H   0  0  0  0  0  0           0  0  0
    5.0970    2.3977    2.2752 H   0  0  0  0  0  0           0  0  0
    6.3904    1.6532    1.3246 H   0  0  0  0  0  0           0  0  0
    0.7640    0.1400    2.5917 H   0  0  0  0  0  0           0  0  0
    0.1168    1.6548    1.9389 H   0  0  0  0  0  0           0  0  0
    0.0000    0.1617    0.9927 H   0  0  0  0  0  0           0  0  0
  1  2  1  0     0  0
  1  4  1  0     0  0
  1  6  1  0     0  0
  1  7  1  0     0  0
  2  3  2  0     0  0
  2  8  1  0     0  0
  3  5  1  0     0  0
  3  9  1  0     0  0
  4 10  1  0     0  0
  4 11  1  0     0  0
  4 12  1  0     0  0
  5 13  1  0     0  0
  5 14  1  0     0  0
  5 15  1  0     0  0
M  END
