2-Pentanol, ID: C6032297
  NIST    04042217093D 1   1.00000     0.00000      
NIST Chemistry WebBook
 18 17  0     0  0              1 V2000
    2.2423    1.7850    3.0058 C   0  0  0  0  0  0           0  0  0
    1.7505    2.5473    1.7850 C   0  0  0  0  0  0           0  0  0
    0.8947    1.6983    0.8721 C   0  0  0  0  0  0           0  0  0
    3.4426    0.8808    2.6718 C   0  0  0  0  0  0           0  0  0
    4.6524    1.7210    2.2670 C   0  0  0  0  0  0           0  0  0
    3.7395    0.0000    3.7312 O   0  0  0  0  0  0           0  0  0
    1.4202    1.1773    3.4334 H   0  0  0  0  0  0           0  0  0
    2.5302    2.5016    3.8012 H   0  0  0  0  0  0           0  0  0
    2.6310    2.9434    1.2287 H   0  0  0  0  0  0           0  0  0
    1.1746    3.4348    2.1112 H   0  0  0  0  0  0           0  0  0
    0.0000    1.3244    1.3877 H   0  0  0  0  0  0           0  0  0
    1.4424    0.8231    0.4962 H   0  0  0  0  0  0           0  0  0
    0.5557    2.2716    0.0000 H   0  0  0  0  0  0           0  0  0
    3.1735    0.1671    1.8585 H   0  0  0  0  0  0           0  0  0
    5.0474    2.3086    3.1067 H   0  0  0  0  0  0           0  0  0
    4.3606    2.4302    1.4747 H   0  0  0  0  0  0           0  0  0
    5.4705    1.0996    1.8843 H   0  0  0  0  0  0           0  0  0
    3.9889    0.5301    4.4783 H   0  0  0  0  0  0           0  0  0
  1  2  1  0     0  0
  1  4  1  0     0  0
  1  7  1  0     0  0
  1  8  1  0     0  0
  2  3  1  0     0  0
  2  9  1  0     0  0
  2 10  1  0     0  0
  3 11  1  0     0  0
  3 12  1  0     0  0
  3 13  1  0     0  0
  4  5  1  0     0  0
  4  6  1  0     0  0
  4 14  1  0     0  0
  5 15  1  0     0  0
  5 16  1  0     0  0
  5 17  1  0     0  0
  6 18  1  0     0  0
M  END
