3-Heptanone, ID: C106354
 OpenBabel09021016193D
NIST Chemistry WebBook
 22 21  0  0  0  0  0  0  0  0999 V2000
    4.4953    2.7264    1.5520 C   0  0  0  0  0
    3.7493    3.1238    2.8175 C   0  0  0  0  0
    2.4075    2.4413    3.0294 C   0  0  0  0  0
    4.1848    3.9714    3.5945 O   0  0  0  0  0
    5.9621    3.1487    1.5891 C   0  0  0  0  0
    1.7518    2.8339    4.3407 C   0  0  0  0  0
    6.7184    2.6428    0.3612 C   0  0  0  0  0
    8.1881    3.0286    0.4154 C   0  0  0  0  0
    4.4316    1.6379    1.4501 H   0  0  0  0  0
    3.9848    3.1863    0.6991 H   0  0  0  0  0
    1.7528    2.7102    2.1933 H   0  0  0  0  0
    2.5682    1.3588    3.0151 H   0  0  0  0  0
    6.4343    2.7591    2.4997 H   0  0  0  0  0
    6.0321    4.2426    1.6419 H   0  0  0  0  0
    2.3822    2.5567    5.1919 H   0  0  0  0  0
    0.7873    2.3289    4.4502 H   0  0  0  0  0
    1.5797    3.9144    4.3884 H   0  0  0  0  0
    6.6375    1.5517    0.2980 H   0  0  0  0  0
    6.2693    3.0556   -0.5491 H   0  0  0  0  0
    8.3081    4.1162    0.4400 H   0  0  0  0  0
    8.6711    2.6092    1.3041 H   0  0  0  0  0
    8.7125    2.6479   -0.4667 H   0  0  0  0  0
  1  2  1  0  0  0
  1  5  1  0  0  0
  1  9  1  0  0  0
  1 10  1  0  0  0
  2  3  1  0  0  0
  2  4  2  0  0  0
  3  6  1  0  0  0
  3 11  1  0  0  0
  3 12  1  0  0  0
  5  7  1  0  0  0
  5 13  1  0  0  0
  5 14  1  0  0  0
  6 15  1  0  0  0
  6 16  1  0  0  0
  6 17  1  0  0  0
  7  8  1  0  0  0
  7 18  1  0  0  0
  7 19  1  0  0  0
  8 20  1  0  0  0
  8 21  1  0  0  0
  8 22  1  0  0  0
M  END
