2-Hexanone, 5-methyl-, ID: C110123
  NIST    04042217083D 1   1.00000     0.00000      
NIST Chemistry WebBook
 22 21  0     0  0              1 V2000
    1.9431    1.9840    1.8491 C   0  0  0  0  0  0           0  0  0
    3.0919    2.7388    1.1924 C   0  0  0  0  0  0           0  0  0
    2.0731    1.9380    3.3737 C   0  0  0  0  0  0           0  0  0
    4.3124    1.8549    1.0173 C   0  0  0  0  0  0           0  0  0
    1.9685    3.3355    3.9620 C   0  0  0  0  0  0           0  0  0
    1.0138    1.0270    3.9684 C   0  0  0  0  0  0           0  0  0
    5.2768    1.8237    2.1709 C   0  0  0  0  0  0           0  0  0
    4.4978    1.2144    0.0000 O   0  0  0  0  0  0           0  0  0
    0.9842    2.4705    1.5795 H   0  0  0  0  0  0           0  0  0
    1.8793    0.9546    1.4437 H   0  0  0  0  0  0           0  0  0
    2.7659    3.1325    0.2101 H   0  0  0  0  0  0           0  0  0
    3.3505    3.6283    1.8114 H   0  0  0  0  0  0           0  0  0
    3.0881    1.5239    3.6234 H   0  0  0  0  0  0           0  0  0
    2.1928    3.3395    5.0355 H   0  0  0  0  0  0           0  0  0
    0.9634    3.7580    3.8317 H   0  0  0  0  0  0           0  0  0
    2.6803    4.0139    3.4617 H   0  0  0  0  0  0           0  0  0
    1.0932    0.9891    5.0626 H   0  0  0  0  0  0           0  0  0
    1.1122    0.0000    3.5929 H   0  0  0  0  0  0           0  0  0
    0.0000    1.3708    3.7226 H   0  0  0  0  0  0           0  0  0
    6.1101    1.1272    2.0157 H   0  0  0  0  0  0           0  0  0
    5.7000    2.8216    2.3433 H   0  0  0  0  0  0           0  0  0
    4.7447    1.5234    3.0902 H   0  0  0  0  0  0           0  0  0
  1  2  1  0     0  0
  1  3  1  0     0  0
  1  9  1  0     0  0
  1 10  1  0     0  0
  2  4  1  0     0  0
  2 11  1  0     0  0
  2 12  1  0     0  0
  3  5  1  0     0  0
  3  6  1  0     0  0
  3 13  1  0     0  0
  4  7  1  0     0  0
  4  8  2  0     0  0
  5 14  1  0     0  0
  5 15  1  0     0  0
  5 16  1  0     0  0
  6 17  1  0     0  0
  6 18  1  0     0  0
  6 19  1  0     0  0
  7 20  1  0     0  0
  7 21  1  0     0  0
  7 22  1  0     0  0
M  END
