Acenaphthene, ID: C83329
  NIST    04042217093D 1   1.00000     0.00000      
NIST Chemistry WebBook
 22 24  0     0  0              1 V2000
    3.3032    3.0003    1.7328 C   0  0  0  0  0  0           0  0  0
    4.0818    3.9812    2.4013 C   0  0  0  0  0  0           0  0  0
    1.9337    3.3643    1.6470 C   0  0  0  0  0  0           0  0  0
    3.8240    1.8151    1.2199 C   0  0  0  0  0  0           0  0  0
    3.1768    5.1052    2.8046 C   0  0  0  0  0  0           0  0  0
    5.4217    3.7622    2.5572 C   0  0  0  0  0  0           0  0  0
    1.7596    4.6981    2.3070 C   0  0  0  0  0  0           0  0  0
    1.0650    2.5106    1.0270 C   0  0  0  0  0  0           0  0  0
    2.8992    0.9444    0.5798 C   0  0  0  0  0  0           0  0  0
    5.2206    1.6112    1.3954 C   0  0  0  0  0  0           0  0  0
    5.9770    2.5584    2.0418 C   0  0  0  0  0  0           0  0  0
    1.5734    1.2934    0.4948 C   0  0  0  0  0  0           0  0  0
    3.1950    5.2543    3.8992 H   0  0  0  0  0  0           0  0  0
    3.5061    6.0587    2.3540 H   0  0  0  0  0  0           0  0  0
    6.0676    4.4848    3.0644 H   0  0  0  0  0  0           0  0  0
    1.3506    5.4395    1.5974 H   0  0  0  0  0  0           0  0  0
    1.0391    4.6347    3.1423 H   0  0  0  0  0  0           0  0  0
    0.0000    2.7414    0.9331 H   0  0  0  0  0  0           0  0  0
    3.2613    0.0000    0.1604 H   0  0  0  0  0  0           0  0  0
    5.6767    0.6938    1.0089 H   0  0  0  0  0  0           0  0  0
    7.0521    2.3930    2.1724 H   0  0  0  0  0  0           0  0  0
    0.8681    0.6168    0.0000 H   0  0  0  0  0  0           0  0  0
  1  2  2  0     0  0
  3  1  1  0     0  0
  1  4  1  0     0  0
  5  2  1  0     0  0
  2  6  1  0     0  0
  3  7  1  0     0  0
  8  3  2  0     0  0
  4  9  1  0     0  0
 10  4  2  0     0  0
  7  5  1  0     0  0
  5 13  1  0     0  0
  5 14  1  0     0  0
  6 11  2  0     0  0
  6 15  1  0     0  0
  7 16  1  0     0  0
  7 17  1  0     0  0
 12  8  1  0     0  0
  8 18  1  0     0  0
  9 12  2  0     0  0
  9 19  1  0     0  0
 11 10  1  0     0  0
 10 20  1  0     0  0
 11 21  1  0     0  0
 12 22  1  0     0  0
M  END
