
 OpenBabel07221012023D

 15 14  0  0  0  0  0  0  0  0999 V2000
    0.9928    2.7775    2.4221 C   0  0  0  0  0
   -0.4718    2.5113    2.1372 C   0  0  0  0  0
    1.7749    1.8719    1.6470 O   0  0  0  0  0
    3.1714    2.0704    1.8536 C   0  0  0  0  0
    3.9282    1.0606    1.0141 C   0  0  0  0  0
    1.1987    2.6247    3.4873 H   0  0  0  0  0
    1.2435    3.8091    2.1517 H   0  0  0  0  0
   -1.1106    3.1820    2.7184 H   0  0  0  0  0
   -0.7305    1.4758    2.3819 H   0  0  0  0  0
   -0.6888    2.6508    1.0730 H   0  0  0  0  0
    3.4133    1.9297    2.9126 H   0  0  0  0  0
    3.4482    3.0868    1.5532 H   0  0  0  0  0
    5.0079    1.1784    1.1411 H   0  0  0  0  0
    3.6819    1.1783   -0.0464 H   0  0  0  0  0
    3.6486    0.0395    1.2945 H   0  0  0  0  0
  1  2  1  0  0  0
  1  3  1  0  0  0
  1  6  1  0  0  0
  1  7  1  0  0  0
  2  8  1  0  0  0
  2  9  1  0  0  0
  2 10  1  0  0  0
  3  4  1  0  0  0
  4  5  1  0  0  0
  4 11  1  0  0  0
  4 12  1  0  0  0
  5 13  1  0  0  0
  5 14  1  0  0  0
  5 15  1  0  0  0
M  END
