Carbonic acid, diethyl ester, ID: C105588
  NIST    04042217083D 1   1.00000     0.00000      
NIST Chemistry WebBook
 18 17  0     0  0              1 V2000
    5.2210    2.7686    1.0160 O   0  0  0  0  0  0           0  0  0
    3.8903    2.9685    1.0484 C   0  0  0  0  0  0           0  0  0
    3.1292    1.8462    0.9905 O   0  0  0  0  0  0           0  0  0
    3.5119    4.1183    1.1244 O   0  0  0  0  0  0           0  0  0
    5.7402    1.4365    0.9331 C   0  0  0  0  0  0           0  0  0
    1.7081    2.0320    1.0234 C   0  0  0  0  0  0           0  0  0
    7.2503    1.5703    0.9324 C   0  0  0  0  0  0           0  0  0
    1.0939    0.6494    0.9374 C   0  0  0  0  0  0           0  0  0
    5.3883    0.8407    1.7961 H   0  0  0  0  0  0           0  0  0
    5.3773    0.9482    0.0093 H   0  0  0  0  0  0           0  0  0
    1.4008    2.6727    0.1757 H   0  0  0  0  0  0           0  0  0
    1.4279    2.5489    1.9602 H   0  0  0  0  0  0           0  0  0
    7.6132    2.1447    0.0699 H   0  0  0  0  0  0           0  0  0
    7.6210    2.0714    1.8365 H   0  0  0  0  0  0           0  0  0
    7.7145    0.5768    0.8890 H   0  0  0  0  0  0           0  0  0
    0.0000    0.7238    0.9831 H   0  0  0  0  0  0           0  0  0
    1.3527    0.1395    0.0000 H   0  0  0  0  0  0           0  0  0
    1.4167    0.0000    1.7621 H   0  0  0  0  0  0           0  0  0
  1  2  1  0     0  0
  1  5  1  0     0  0
  2  3  1  0     0  0
  2  4  2  0     0  0
  3  6  1  0     0  0
  5  7  1  0     0  0
  5  9  1  0     0  0
  5 10  1  0     0  0
  6  8  1  0     0  0
  6 11  1  0     0  0
  6 12  1  0     0  0
  7 13  1  0     0  0
  7 14  1  0     0  0
  7 15  1  0     0  0
  8 16  1  0     0  0
  8 17  1  0     0  0
  8 18  1  0     0  0
M  END
