
 OpenBabel07031019343D

 21 20  0  0  0  0  0  0  0  0999 V2000
    2.9154    2.2334    1.8118 O   0  0  0  0  0
    1.7710    1.4518    2.1606 C   0  0  0  0  0
    3.9695    1.5684    1.1129 C   0  0  0  0  0
    0.7633    2.4145    2.7820 C   0  0  0  0  0
    2.1086    0.3407    3.1494 C   0  0  0  0  0
    5.1006    2.5828    0.9697 C   0  0  0  0  0
    3.5320    1.0781   -0.2638 C   0  0  0  0  0
    1.3178    1.0290    1.2581 H   0  0  0  0  0
    4.3442    0.7309    1.7101 H   0  0  0  0  0
    1.1747    2.8871    3.6814 H   0  0  0  0  0
   -0.1669    1.9023    3.0499 H   0  0  0  0  0
    0.5254    3.2235    2.0826 H   0  0  0  0  0
    1.2020   -0.1452    3.5250 H   0  0  0  0  0
    2.6793    0.7307    3.9995 H   0  0  0  0  0
    2.7236   -0.4325    2.6778 H   0  0  0  0  0
    4.7729    3.4580    0.3970 H   0  0  0  0  0
    5.9711    2.1438    0.4714 H   0  0  0  0  0
    5.4120    2.9498    1.9540 H   0  0  0  0  0
    3.0353    1.8765   -0.8260 H   0  0  0  0  0
    2.8176    0.2531   -0.1788 H   0  0  0  0  0
    4.3855    0.7143   -0.8451 H   0  0  0  0  0
  1  2  1  0  0  0
  1  3  1  0  0  0
  2  4  1  0  0  0
  2  5  1  0  0  0
  2  8  1  0  0  0
  3  6  1  0  0  0
  3  7  1  0  0  0
  3  9  1  0  0  0
  4 10  1  0  0  0
  4 11  1  0  0  0
  4 12  1  0  0  0
  5 13  1  0  0  0
  5 14  1  0  0  0
  5 15  1  0  0  0
  6 16  1  0  0  0
  6 17  1  0  0  0
  6 18  1  0  0  0
  7 19  1  0  0  0
  7 20  1  0  0  0
  7 21  1  0  0  0
M  END
