11265 2-METHYL-3-PENTANONE from www.chemspider.com
  Marvin  12300703363D          

 19 18  0  0  0  0            999 V2000
    1.7633   -0.5054    0.3563 O   0  0  0  0  0  0  0  0  0  0  0  0
   -0.1213    0.8425    0.3153 C   0  0  1  0  0  0  0  0  0  0  0  0
    0.5384   -0.4623    0.3352 C   0  0  0  0  0  0  0  0  0  0  0  0
   -0.1744   -1.7293    0.2893 C   0  0  0  0  0  0  0  0  0  0  0  0
    0.1859    1.6510    1.6046 C   0  0  0  0  0  0  0  0  0  0  0  0
    0.1953    1.6383   -0.9805 C   0  0  0  0  0  0  0  0  0  0  0  0
   -0.4569   -2.1764   -1.1610 C   0  0  0  0  0  0  0  0  0  0  0  0
   -1.2073    0.7003    0.3092 H   0  0  0  0  0  0  0  0  0  0  0  0
    0.3991   -2.5139    0.7926 H   0  0  0  0  0  0  0  0  0  0  0  0
   -1.1178   -1.6577    0.8374 H   0  0  0  0  0  0  0  0  0  0  0  0
   -0.0960    1.0842    2.4955 H   0  0  0  0  0  0  0  0  0  0  0  0
   -0.3771    2.5863    1.6218 H   0  0  0  0  0  0  0  0  0  0  0  0
    1.2480    1.8955    1.6783 H   0  0  0  0  0  0  0  0  0  0  0  0
   -0.3657    2.5750   -1.0079 H   0  0  0  0  0  0  0  0  0  0  0  0
   -0.0848    1.0685   -1.8696 H   0  0  0  0  0  0  0  0  0  0  0  0
    1.2578    1.8804   -1.0533 H   0  0  0  0  0  0  0  0  0  0  0  0
   -0.9986   -3.1237   -1.1657 H   0  0  0  0  0  0  0  0  0  0  0  0
    0.4767   -2.3163   -1.7109 H   0  0  0  0  0  0  0  0  0  0  0  0
   -1.0645   -1.4369   -1.6866 H   0  0  0  0  0  0  0  0  0  0  0  0
  1  3  2  0  0  0  0
  2  3  1  0  0  0  0
  2  5  1  0  0  0  0
  2  6  1  0  0  0  0
  2  8  1  0  0  0  0
  3  4  1  0  0  0  0
  4  7  1  0  0  0  0
  4  9  1  0  0  0  0
  4 10  1  0  0  0  0
  5 11  1  0  0  0  0
  5 12  1  0  0  0  0
  5 13  1  0  0  0  0
  6 14  1  0  0  0  0
  6 15  1  0  0  0  0
  6 16  1  0  0  0  0
  7 17  1  0  0  0  0
  7 18  1  0  0  0  0
  7 19  1  0  0  0  0
M  END
$$$$
