7800 ETHYL DODECANOATE from www.chemspider.com
  Marvin  12300703363D          

 44 43  0  0  0  0            999 V2000
   -5.4854    3.8245   -0.1363 O   0  0  0  0  0  0  0  0  0  0  0  0
   -5.4988    1.6932    0.1062 O   0  0  0  0  0  0  0  0  0  0  0  0
    1.4638   -1.5289    0.0874 C   0  0  0  0  0  0  0  0  0  0  0  0
    0.9339   -0.0736    0.0897 C   0  0  0  0  0  0  0  0  0  0  0  0
    3.0078   -1.6005    0.0876 C   0  0  0  0  0  0  0  0  0  0  0  0
   -0.6093   -0.0115    0.0981 C   0  0  0  0  0  0  0  0  0  0  0  0
    3.5575   -3.0473    0.0883 C   0  0  0  0  0  0  0  0  0  0  0  0
   -1.1885    1.4253    0.1153 C   0  0  0  0  0  0  0  0  0  0  0  0
    5.1049   -3.0927    0.0887 C   0  0  0  0  0  0  0  0  0  0  0  0
   -2.7356    1.4016    0.1357 C   0  0  0  0  0  0  0  0  0  0  0  0
    5.6841   -4.5280    0.0889 C   0  0  0  0  0  0  0  0  0  0  0  0
   -3.4339    2.7866    0.1326 C   0  0  0  0  0  0  0  0  0  0  0  0
    7.2269   -4.5595    0.0890 C   0  0  0  0  0  0  0  0  0  0  0  0
   -4.8837    2.7510    0.0347 C   0  0  0  0  0  0  0  0  0  0  0  0
   -6.7365    4.0824   -0.5421 C   0  0  0  0  0  0  0  0  0  0  0  0
   -7.0579    5.5771   -0.3633 C   0  0  0  0  0  0  0  0  0  0  0  0
    1.0823   -2.0499   -0.7959 H   0  0  0  0  0  0  0  0  0  0  0  0
    1.0834   -2.0519    0.9699 H   0  0  0  0  0  0  0  0  0  0  0  0
    1.3073    0.4486   -0.7958 H   0  0  0  0  0  0  0  0  0  0  0  0
    1.3155    0.4478    0.9720 H   0  0  0  0  0  0  0  0  0  0  0  0
    3.3839   -1.0767   -0.7960 H   0  0  0  0  0  0  0  0  0  0  0  0
    3.3836   -1.0768    0.9714 H   0  0  0  0  0  0  0  0  0  0  0  0
   -0.9821   -0.5338   -0.7884 H   0  0  0  0  0  0  0  0  0  0  0  0
   -0.9744   -0.5500    0.9777 H   0  0  0  0  0  0  0  0  0  0  0  0
    3.1820   -3.5726   -0.7947 H   0  0  0  0  0  0  0  0  0  0  0  0
    3.1818   -3.5719    0.9716 H   0  0  0  0  0  0  0  0  0  0  0  0
   -0.8424    1.9638   -0.7718 H   0  0  0  0  0  0  0  0  0  0  0  0
   -0.8197    1.9594    0.9952 H   0  0  0  0  0  0  0  0  0  0  0  0
    5.4730   -2.5621   -0.7942 H   0  0  0  0  0  0  0  0  0  0  0  0
    5.4725   -2.5621    0.9719 H   0  0  0  0  0  0  0  0  0  0  0  0
   -3.0734    0.8475   -0.7457 H   0  0  0  0  0  0  0  0  0  0  0  0
   -3.0651    0.8508    1.0218 H   0  0  0  0  0  0  0  0  0  0  0  0
    5.3250   -5.0642   -0.7937 H   0  0  0  0  0  0  0  0  0  0  0  0
    5.3249   -5.0640    0.9716 H   0  0  0  0  0  0  0  0  0  0  0  0
   -3.0515    3.3483   -0.7250 H   0  0  0  0  0  0  0  0  0  0  0  0
   -3.1525    3.3346    1.0362 H   0  0  0  0  0  0  0  0  0  0  0  0
    7.5795   -5.5921    0.0890 H   0  0  0  0  0  0  0  0  0  0  0  0
    7.6224   -4.0611   -0.7983 H   0  0  0  0  0  0  0  0  0  0  0  0
    7.6224   -4.0611    0.9763 H   0  0  0  0  0  0  0  0  0  0  0  0
   -6.8307    3.8130   -1.5989 H   0  0  0  0  0  0  0  0  0  0  0  0
   -7.4713    3.5020    0.0244 H   0  0  0  0  0  0  0  0  0  0  0  0
   -8.0451    5.7989   -0.7730 H   0  0  0  0  0  0  0  0  0  0  0  0
   -6.3207    6.1985   -0.8750 H   0  0  0  0  0  0  0  0  0  0  0  0
   -7.0598    5.8374    0.6970 H   0  0  0  0  0  0  0  0  0  0  0  0
  1 14  1  0  0  0  0
  1 15  1  0  0  0  0
  2 14  2  0  0  0  0
  3  4  1  0  0  0  0
  3  5  1  0  0  0  0
  3 17  1  0  0  0  0
  3 18  1  0  0  0  0
  4  6  1  0  0  0  0
  4 19  1  0  0  0  0
  4 20  1  0  0  0  0
  5  7  1  0  0  0  0
  5 21  1  0  0  0  0
  5 22  1  0  0  0  0
  6  8  1  0  0  0  0
  6 23  1  0  0  0  0
  6 24  1  0  0  0  0
  7  9  1  0  0  0  0
  7 25  1  0  0  0  0
  7 26  1  0  0  0  0
  8 10  1  0  0  0  0
  8 27  1  0  0  0  0
  8 28  1  0  0  0  0
  9 11  1  0  0  0  0
  9 29  1  0  0  0  0
  9 30  1  0  0  0  0
 10 12  1  0  0  0  0
 10 31  1  0  0  0  0
 10 32  1  0  0  0  0
 11 13  1  0  0  0  0
 11 33  1  0  0  0  0
 11 34  1  0  0  0  0
 12 14  1  0  0  0  0
 12 35  1  0  0  0  0
 12 36  1  0  0  0  0
 13 37  1  0  0  0  0
 13 38  1  0  0  0  0
 13 39  1  0  0  0  0
 15 16  1  0  0  0  0
 15 40  1  0  0  0  0
 15 41  1  0  0  0  0
 16 42  1  0  0  0  0
 16 43  1  0  0  0  0
 16 44  1  0  0  0  0
M  END
$$$$
