12256 ETHYL ISOPROPYL ETHER from www.chemspider.com
  Marvin  12300703363D          

 18 17  0  0  0  0            999 V2000
   -0.4888   -0.3124   -0.2173 O   0  0  0  0  0  0  0  0  0  0  0  0
    0.9552   -0.3855   -0.2066 C   0  0  2  0  0  0  0  0  0  0  0  0
    1.3713   -1.8750   -0.2943 C   0  0  0  0  0  0  0  0  0  0  0  0
    1.5935    0.2848    1.0388 C   0  0  0  0  0  0  0  0  0  0  0  0
   -1.1122    0.9849   -0.3091 C   0  0  0  0  0  0  0  0  0  0  0  0
   -2.6471    0.8820   -0.3346 C   0  0  0  0  0  0  0  0  0  0  0  0
    1.3480    0.1024   -1.1040 H   0  0  0  0  0  0  0  0  0  0  0  0
    0.9689   -2.3384   -1.1962 H   0  0  0  0  0  0  0  0  0  0  0  0
    2.4600   -1.9734   -0.3317 H   0  0  0  0  0  0  0  0  0  0  0  0
    1.0088   -2.4352    0.5701 H   0  0  0  0  0  0  0  0  0  0  0  0
    2.6755    0.1496    1.0522 H   0  0  0  0  0  0  0  0  0  0  0  0
    1.1733   -0.1368    1.9539 H   0  0  0  0  0  0  0  0  0  0  0  0
    1.4125    1.3604    1.0411 H   0  0  0  0  0  0  0  0  0  0  0  0
   -0.7796    1.5076   -1.2094 H   0  0  0  0  0  0  0  0  0  0  0  0
   -0.8586    1.5943    0.5609 H   0  0  0  0  0  0  0  0  0  0  0  0
   -3.0850    1.8830   -0.3470 H   0  0  0  0  0  0  0  0  0  0  0  0
   -3.0097    0.3620    0.5548 H   0  0  0  0  0  0  0  0  0  0  0  0
   -2.9861    0.3456   -1.2215 H   0  0  0  0  0  0  0  0  0  0  0  0
  1  2  1  0  0  0  0
  1  5  1  0  0  0  0
  2  3  1  0  0  0  0
  2  4  1  0  0  0  0
  2  7  1  0  0  0  0
  3  8  1  0  0  0  0
  3  9  1  0  0  0  0
  3 10  1  0  0  0  0
  4 11  1  0  0  0  0
  4 12  1  0  0  0  0
  4 13  1  0  0  0  0
  5  6  1  0  0  0  0
  5 14  1  0  0  0  0
  5 15  1  0  0  0  0
  6 16  1  0  0  0  0
  6 17  1  0  0  0  0
  6 18  1  0  0  0  0
M  END
$$$$
