Benzene, 1,3-dimethyl-, ID: C108383
  NIST    04042217083D 1   1.00000     0.00000      
NIST Chemistry WebBook
 18 18  0     0  0              1 V2000
    0.8755    3.7502    2.6142 C   0  0  0  0  0  0           0  0  0
    1.7886    2.7378    2.0235 C   0  0  0  0  0  0           0  0  0
    3.1595    2.7837    2.2764 C   0  0  0  0  0  0           0  0  0
    1.2709    1.7339    1.2035 C   0  0  0  0  0  0           0  0  0
    4.0113    1.8335    1.7127 C   0  0  0  0  0  0           0  0  0
    2.1182    0.7862    0.6422 C   0  0  0  0  0  0           0  0  0
    5.4737    1.8868    1.9703 C   0  0  0  0  0  0           0  0  0
    3.4842    0.8329    0.8941 C   0  0  0  0  0  0           0  0  0
    1.3689    4.3556    3.3861 H   0  0  0  0  0  0           0  0  0
    0.0000    3.2739    3.0750 H   0  0  0  0  0  0           0  0  0
    0.5083    4.4370    1.8396 H   0  0  0  0  0  0           0  0  0
    3.5699    3.5694    2.9223 H   0  0  0  0  0  0           0  0  0
    0.1942    1.6954    1.0059 H   0  0  0  0  0  0           0  0  0
    1.7083    0.0000    0.0000 H   0  0  0  0  0  0           0  0  0
    5.7176    2.5024    2.8464 H   0  0  0  0  0  0           0  0  0
    6.0002    2.3166    1.1072 H   0  0  0  0  0  0           0  0  0
    5.8868    0.8842    2.1438 H   0  0  0  0  0  0           0  0  0
    4.1507    0.0839    0.4529 H   0  0  0  0  0  0           0  0  0
  1  2  1  0     0  0
  1  9  1  0     0  0
  1 10  1  0     0  0
  1 11  1  0     0  0
  2  3  2  0     0  0
  4  2  1  0     0  0
  3  5  1  0     0  0
  3 12  1  0     0  0
  6  4  2  0     0  0
  4 13  1  0     0  0
  5  7  1  0     0  0
  5  8  2  0     0  0
  8  6  1  0     0  0
  6 14  1  0     0  0
  7 15  1  0     0  0
  7 16  1  0     0  0
  7 17  1  0     0  0
  8 18  1  0     0  0
M  END
