11124 METHYL PROPANOATE from www.chemspider.com
  Marvin  12300703363D          

 14 13  0  0  0  0            999 V2000
    0.9917    0.4738   -0.3929 O   0  0  0  0  0  0  0  0  0  0  0  0
   -0.9021    1.4668   -0.7250 O   0  0  0  0  0  0  0  0  0  0  0  0
   -0.8980   -0.8392   -0.6054 C   0  0  0  0  0  0  0  0  0  0  0  0
   -1.1507   -1.3606    0.8265 C   0  0  0  0  0  0  0  0  0  0  0  0
   -0.2346    0.4478   -0.5866 C   0  0  0  0  0  0  0  0  0  0  0  0
    1.8157    1.4603   -0.0285 C   0  0  0  0  0  0  0  0  0  0  0  0
   -0.2956   -1.5654   -1.1589 H   0  0  0  0  0  0  0  0  0  0  0  0
   -1.8587   -0.7758   -1.1248 H   0  0  0  0  0  0  0  0  0  0  0  0
   -1.6730   -2.3179    0.7928 H   0  0  0  0  0  0  0  0  0  0  0  0
   -0.2108   -1.5054    1.3646 H   0  0  0  0  0  0  0  0  0  0  0  0
   -1.7693   -0.6586    1.3910 H   0  0  0  0  0  0  0  0  0  0  0  0
    2.8422    1.1064   -0.1323 H   0  0  0  0  0  0  0  0  0  0  0  0
    1.6462    1.7115    1.0198 H   0  0  0  0  0  0  0  0  0  0  0  0
    1.6970    2.3563   -0.6404 H   0  0  0  0  0  0  0  0  0  0  0  0
  1  5  1  0  0  0  0
  1  6  1  0  0  0  0
  2  5  2  0  0  0  0
  3  4  1  0  0  0  0
  3  5  1  0  0  0  0
  3  7  1  0  0  0  0
  3  8  1  0  0  0  0
  4  9  1  0  0  0  0
  4 10  1  0  0  0  0
  4 11  1  0  0  0  0
  6 12  1  0  0  0  0
  6 13  1  0  0  0  0
  6 14  1  0  0  0  0
M  END
$$$$
