
 OpenBabel07221012043D

 15 14  0  0  0  0  0  0  0  0999 V2000
    1.2622    2.1044    2.1401 C   0  0  0  0  0
    0.7612    2.9249    3.3149 C   0  0  0  0  0
    2.1176    0.9283    2.5927 C   0  0  0  0  0
    2.5474    0.2152    1.4343 O   0  0  0  0  0
    3.3603   -0.8993    1.7768 C   0  0  0  0  0
    1.8424    2.7417    1.4616 H   0  0  0  0  0
    0.4115    1.7364    1.5534 H   0  0  0  0  0
    0.1509    3.7616    2.9607 H   0  0  0  0  0
    1.5966    3.3342    3.8919 H   0  0  0  0  0
    0.1464    2.3156    3.9849 H   0  0  0  0  0
    1.5343    0.2612    3.2376 H   0  0  0  0  0
    2.9922    1.2872    3.1472 H   0  0  0  0  0
    3.6566   -1.4061    0.8544 H   0  0  0  0  0
    2.8012   -1.6048    2.3992 H   0  0  0  0  0
    4.2632   -0.5687    2.2994 H   0  0  0  0  0
  1  2  1  0  0  0
  1  3  1  0  0  0
  1  6  1  0  0  0
  1  7  1  0  0  0
  2  8  1  0  0  0
  2  9  1  0  0  0
  2 10  1  0  0  0
  3  4  1  0  0  0
  3 11  1  0  0  0
  3 12  1  0  0  0
  4  5  1  0  0  0
  5 13  1  0  0  0
  5 14  1  0  0  0
  5 15  1  0  0  0
M  END
