Benzene, butyl-, ID: C104518
  NIST    04042217083D 1   1.00000     0.00000      
NIST Chemistry WebBook
 24 24  0     0  0              1 V2000
    1.3291    2.7006    2.4913 C   0  0  0  0  0  0           0  0  0
    2.1961    3.7708    3.1441 C   0  0  0  0  0  0           0  0  0
    3.6076    3.7258    2.6526 C   0  0  0  0  0  0           0  0  0
    1.6434    1.2956    2.9829 C   0  0  0  0  0  0           0  0  0
    4.6028    3.1142    3.4158 C   0  0  0  0  0  0           0  0  0
    3.9376    4.2978    1.4223 C   0  0  0  0  0  0           0  0  0
    1.0907    1.0244    4.3643 C   0  0  0  0  0  0           0  0  0
    5.9144    3.0790    2.9546 C   0  0  0  0  0  0           0  0  0
    5.2495    4.2603    0.9649 C   0  0  0  0  0  0           0  0  0
    6.2394    3.6518    1.7299 C   0  0  0  0  0  0           0  0  0
    0.2613    2.9309    2.6779 H   0  0  0  0  0  0           0  0  0
    1.4604    2.7472    1.3917 H   0  0  0  0  0  0           0  0  0
    1.7701    4.7718    2.9320 H   0  0  0  0  0  0           0  0  0
    2.1697    3.6605    4.2477 H   0  0  0  0  0  0           0  0  0
    1.2292    0.5572    2.2688 H   0  0  0  0  0  0           0  0  0
    2.7418    1.1381    2.9776 H   0  0  0  0  0  0           0  0  0
    4.3479    2.6592    4.3802 H   0  0  0  0  0  0           0  0  0
    3.1574    4.7752    0.8190 H   0  0  0  0  0  0           0  0  0
    0.0000    1.1482    4.3972 H   0  0  0  0  0  0           0  0  0
    1.3146    0.0000    4.6879 H   0  0  0  0  0  0           0  0  0
    1.5184    1.7046    5.1143 H   0  0  0  0  0  0           0  0  0
    6.6910    2.5989    3.5583 H   0  0  0  0  0  0           0  0  0
    5.5038    4.7109    0.0000 H   0  0  0  0  0  0           0  0  0
    7.2724    3.6244    1.3685 H   0  0  0  0  0  0           0  0  0
  1  2  1  0     0  0
  1  4  1  0     0  0
  1 11  1  0     0  0
  1 12  1  0     0  0
  2  3  1  0     0  0
  2 13  1  0     0  0
  2 14  1  0     0  0
  5  3  2  0     0  0
  3  6  1  0     0  0
  4  7  1  0     0  0
  4 15  1  0     0  0
  4 16  1  0     0  0
  8  5  1  0     0  0
  5 17  1  0     0  0
  6  9  2  0     0  0
  6 18  1  0     0  0
  7 19  1  0     0  0
  7 20  1  0     0  0
  7 21  1  0     0  0
 10  8  2  0     0  0
  8 22  1  0     0  0
  9 10  1  0     0  0
  9 23  1  0     0  0
 10 24  1  0     0  0
M  END
