n-Docosane, ID: C629970
  NIST    04042217093D 1   1.00000     0.00000      
NIST Chemistry WebBook
 68 67  0     0  0              1 V2000
   12.2306    3.0328    7.1563 C   0  0  0  0  0  0           0  0  0
   11.3000    2.7927    8.3340 C   0  0  0  0  0  0           0  0  0
   10.0600    2.0247    7.9105 C   0  0  0  0  0  0           0  0  0
   13.4709    3.8027    7.5802 C   0  0  0  0  0  0           0  0  0
    9.1372    1.7550    9.0892 C   0  0  0  0  0  0           0  0  0
   14.3976    4.0486    6.4024 C   0  0  0  0  0  0           0  0  0
    7.8116    1.1626    8.6344 C   0  0  0  0  0  0           0  0  0
   15.6373    4.8265    6.8168 C   0  0  0  0  0  0           0  0  0
    7.0154    2.1555    7.8012 C   0  0  0  0  0  0           0  0  0
   16.6434    4.9184    5.6792 C   0  0  0  0  0  0           0  0  0
    5.7768    1.5160    7.1985 C   0  0  0  0  0  0           0  0  0
   17.2029    3.5506    5.3181 C   0  0  0  0  0  0           0  0  0
    4.9787    2.5203    6.3828 C   0  0  0  0  0  0           0  0  0
   18.0622    3.6094    4.0674 C   0  0  0  0  0  0           0  0  0
    3.7379    1.8821    5.7798 C   0  0  0  0  0  0           0  0  0
   18.6264    2.2413    3.7195 C   0  0  0  0  0  0           0  0  0
    2.9384    2.8879    4.9677 C   0  0  0  0  0  0           0  0  0
   19.4837    2.2997    2.4657 C   0  0  0  0  0  0           0  0  0
    1.6950    2.2526    4.3660 C   0  0  0  0  0  0           0  0  0
   20.0477    0.9324    2.1145 C   0  0  0  0  0  0           0  0  0
    0.8979    3.2519    3.5588 C   0  0  0  0  0  0           0  0  0
   20.9011    0.9889    0.8677 C   0  0  0  0  0  0           0  0  0
   11.6951    3.5863    6.3586 H   0  0  0  0  0  0           0  0  0
   12.5236    2.0654    6.7007 H   0  0  0  0  0  0           0  0  0
   11.0096    3.7608    8.7900 H   0  0  0  0  0  0           0  0  0
   11.8332    2.2371    9.1317 H   0  0  0  0  0  0           0  0  0
   10.3487    1.0688    7.4295 H   0  0  0  0  0  0           0  0  0
    9.4956    2.5894    7.1323 H   0  0  0  0  0  0           0  0  0
   14.0068    3.2470    8.3761 H   0  0  0  0  0  0           0  0  0
   13.1796    4.7695    8.0381 H   0  0  0  0  0  0           0  0  0
    9.6298    1.0686    9.8055 H   0  0  0  0  0  0           0  0  0
    8.9556    2.6934    9.6512 H   0  0  0  0  0  0           0  0  0
   14.7144    3.0837    5.9428 H   0  0  0  0  0  0           0  0  0
   13.8594    4.5938    5.6013 H   0  0  0  0  0  0           0  0  0
    7.9940    0.2375    8.0508 H   0  0  0  0  0  0           0  0  0
    7.2188    0.8480    9.5157 H   0  0  0  0  0  0           0  0  0
   16.1095    4.3467    7.6981 H   0  0  0  0  0  0           0  0  0
   15.3515    5.8440    7.1480 H   0  0  0  0  0  0           0  0  0
    6.7300    3.0276    8.4227 H   0  0  0  0  0  0           0  0  0
    7.6754    2.5648    7.0015 H   0  0  0  0  0  0           0  0  0
   16.1648    5.3791    4.7915 H   0  0  0  0  0  0           0  0  0
   17.4684    5.6012    5.9620 H   0  0  0  0  0  0           0  0  0
    6.0653    0.6556    6.5614 H   0  0  0  0  0  0           0  0  0
    5.1430    1.0906    8.0025 H   0  0  0  0  0  0           0  0  0
   16.3554    2.8397    5.1796 H   0  0  0  0  0  0           0  0  0
   17.7908    3.1465    6.1664 H   0  0  0  0  0  0           0  0  0
    4.6901    3.3812    7.0193 H   0  0  0  0  0  0           0  0  0
    5.6143    2.9455    5.5800 H   0  0  0  0  0  0           0  0  0
   17.4685    4.0011    3.2168 H   0  0  0  0  0  0           0  0  0
   18.8882    4.3350    4.2115 H   0  0  0  0  0  0           0  0  0
    4.0264    1.0234    5.1405 H   0  0  0  0  0  0           0  0  0
    3.1041    1.4542    6.5827 H   0  0  0  0  0  0           0  0  0
   17.7996    1.5158    3.5800 H   0  0  0  0  0  0           0  0  0
   19.2234    1.8510    4.5684 H   0  0  0  0  0  0           0  0  0
    3.5712    3.3140    4.1631 H   0  0  0  0  0  0           0  0  0
    2.6514    3.7480    5.6057 H   0  0  0  0  0  0           0  0  0
   18.8878    2.6914    1.6167 H   0  0  0  0  0  0           0  0  0
   20.3112    3.0243    2.6059 H   0  0  0  0  0  0           0  0  0
    1.9823    1.3934    3.7277 H   0  0  0  0  0  0           0  0  0
    1.0632    1.8259    5.1704 H   0  0  0  0  0  0           0  0  0
   19.2202    0.2085    1.9744 H   0  0  0  0  0  0           0  0  0
   20.6432    0.5413    2.9634 H   0  0  0  0  0  0           0  0  0
    0.5684    4.0995    4.1745 H   0  0  0  0  0  0           0  0  0
    1.4867    3.6631    2.7280 H   0  0  0  0  0  0           0  0  0
    0.0000    2.7912    3.1281 H   0  0  0  0  0  0           0  0  0
   20.3277    1.3413    0.0000 H   0  0  0  0  0  0           0  0  0
   21.7545    1.6691    0.9918 H   0  0  0  0  0  0           0  0  0
   21.3041    0.0000    0.6152 H   0  0  0  0  0  0           0  0  0
  1  2  1  0     0  0
  1  4  1  0     0  0
  1 23  1  0     0  0
  1 24  1  0     0  0
  2  3  1  0     0  0
  2 25  1  0     0  0
  2 26  1  0     0  0
  3  5  1  0     0  0
  3 27  1  0     0  0
  3 28  1  0     0  0
  4  6  1  0     0  0
  4 29  1  0     0  0
  4 30  1  0     0  0
  5  7  1  0     0  0
  5 31  1  0     0  0
  5 32  1  0     0  0
  6  8  1  0     0  0
  6 33  1  0     0  0
  6 34  1  0     0  0
  7  9  1  0     0  0
  7 35  1  0     0  0
  7 36  1  0     0  0
  8 10  1  0     0  0
  8 37  1  0     0  0
  8 38  1  0     0  0
  9 11  1  0     0  0
  9 39  1  0     0  0
  9 40  1  0     0  0
 10 12  1  0     0  0
 10 41  1  0     0  0
 10 42  1  0     0  0
 11 13  1  0     0  0
 11 43  1  0     0  0
 11 44  1  0     0  0
 12 14  1  0     0  0
 12 45  1  0     0  0
 12 46  1  0     0  0
 13 15  1  0     0  0
 13 47  1  0     0  0
 13 48  1  0     0  0
 14 16  1  0     0  0
 14 49  1  0     0  0
 14 50  1  0     0  0
 15 17  1  0     0  0
 15 51  1  0     0  0
 15 52  1  0     0  0
 16 18  1  0     0  0
 16 53  1  0     0  0
 16 54  1  0     0  0
 17 19  1  0     0  0
 17 55  1  0     0  0
 17 56  1  0     0  0
 18 20  1  0     0  0
 18 57  1  0     0  0
 18 58  1  0     0  0
 19 21  1  0     0  0
 19 59  1  0     0  0
 19 60  1  0     0  0
 20 22  1  0     0  0
 20 61  1  0     0  0
 20 62  1  0     0  0
 21 63  1  0     0  0
 21 64  1  0     0  0
 21 65  1  0     0  0
 22 66  1  0     0  0
 22 67  1  0     0  0
 22 68  1  0     0  0
M  END
