n-Dodecane, ID: C112403
  NIST    04042217083D 1   1.00000     0.00000      
NIST Chemistry WebBook
 38 37  0     0  0              1 V2000
    6.3395    3.0379    3.3048 C   0  0  0  0  0  0           0  0  0
    5.1366    2.1408    3.5371 C   0  0  0  0  0  0           0  0  0
    5.0994    0.9565    2.5817 C   0  0  0  0  0  0           0  0  0
    6.3515    4.2190    4.2634 C   0  0  0  0  0  0           0  0  0
    4.5876    1.3336    1.1979 C   0  0  0  0  0  0           0  0  0
    7.4513    5.2099    3.9123 C   0  0  0  0  0  0           0  0  0
    3.1476    1.8255    1.2168 C   0  0  0  0  0  0           0  0  0
    7.1980    5.8683    2.5646 C   0  0  0  0  0  0           0  0  0
    2.1430    0.6886    1.3126 C   0  0  0  0  0  0           0  0  0
    8.3786    6.7150    2.1213 C   0  0  0  0  0  0           0  0  0
    0.7234    1.2073    1.3534 C   0  0  0  0  0  0           0  0  0
    8.1130    7.3814    0.7904 C   0  0  0  0  0  0           0  0  0
    6.3476    3.4238    2.2584 H   0  0  0  0  0  0           0  0  0
    7.2765    2.4552    3.4107 H   0  0  0  0  0  0           0  0  0
    4.1930    2.7235    3.4246 H   0  0  0  0  0  0           0  0  0
    5.1448    1.7778    4.5835 H   0  0  0  0  0  0           0  0  0
    4.4541    0.1620    3.0087 H   0  0  0  0  0  0           0  0  0
    6.1081    0.5068    2.4938 H   0  0  0  0  0  0           0  0  0
    6.4864    3.8609    5.3029 H   0  0  0  0  0  0           0  0  0
    5.3674    4.7297    4.2485 H   0  0  0  0  0  0           0  0  0
    4.6835    0.4642    0.5175 H   0  0  0  0  0  0           0  0  0
    5.2380    2.1224    0.7683 H   0  0  0  0  0  0           0  0  0
    8.4329    4.6943    3.9042 H   0  0  0  0  0  0           0  0  0
    7.5265    5.9829    4.7019 H   0  0  0  0  0  0           0  0  0
    2.9438    2.4214    0.3058 H   0  0  0  0  0  0           0  0  0
    3.0167    2.5260    2.0739 H   0  0  0  0  0  0           0  0  0
    6.2816    6.4898    2.6127 H   0  0  0  0  0  0           0  0  0
    6.9793    5.0762    1.8113 H   0  0  0  0  0  0           0  0  0
    2.3486    0.0777    2.2149 H   0  0  0  0  0  0           0  0  0
    2.2698    0.0000    0.4535 H   0  0  0  0  0  0           0  0  0
    9.2898    6.0876    2.0547 H   0  0  0  0  0  0           0  0  0
    8.6011    7.4804    2.8912 H   0  0  0  0  0  0           0  0  0
    0.4783    1.7885    0.4544 H   0  0  0  0  0  0           0  0  0
    0.0000    0.3847    1.4193 H   0  0  0  0  0  0           0  0  0
    0.5559    1.8616    2.2194 H   0  0  0  0  0  0           0  0  0
    7.9196    6.6439    0.0000 H   0  0  0  0  0  0           0  0  0
    8.9694    7.9886    0.4705 H   0  0  0  0  0  0           0  0  0
    7.2393    8.0452    0.8367 H   0  0  0  0  0  0           0  0  0
  1  2  1  0     0  0
  1  4  1  0     0  0
  1 13  1  0     0  0
  1 14  1  0     0  0
  2  3  1  0     0  0
  2 15  1  0     0  0
  2 16  1  0     0  0
  3  5  1  0     0  0
  3 17  1  0     0  0
  3 18  1  0     0  0
  4  6  1  0     0  0
  4 19  1  0     0  0
  4 20  1  0     0  0
  5  7  1  0     0  0
  5 21  1  0     0  0
  5 22  1  0     0  0
  6  8  1  0     0  0
  6 23  1  0     0  0
  6 24  1  0     0  0
  7  9  1  0     0  0
  7 25  1  0     0  0
  7 26  1  0     0  0
  8 10  1  0     0  0
  8 27  1  0     0  0
  8 28  1  0     0  0
  9 11  1  0     0  0
  9 29  1  0     0  0
  9 30  1  0     0  0
 10 12  1  0     0  0
 10 31  1  0     0  0
 10 32  1  0     0  0
 11 33  1  0     0  0
 11 34  1  0     0  0
 11 35  1  0     0  0
 12 36  1  0     0  0
 12 37  1  0     0  0
 12 38  1  0     0  0
M  END
