Eicosane, ID: C112958
 OpenBabel09011009553D
NIST Chemistry WebBook
 62 61  0  0  0  0  0  0  0  0999 V2000
    8.5556    2.7128    7.1482 C   0  0  0  0  0
    7.0724    2.3590    7.2613 C   0  0  0  0  0
    6.7428    1.6381    8.5696 C   0  0  0  0  0
    8.8300    3.4332    5.8268 C   0  0  0  0  0
    5.2640    1.2473    8.6031 C   0  0  0  0  0
   10.3110    3.7662    5.6421 C   0  0  0  0  0
    4.8845    0.5253    9.8961 C   0  0  0  0  0
   10.5330    4.4957    4.3158 C   0  0  0  0  0
    3.4170    0.0928    9.8574 C   0  0  0  0  0
   12.0068    4.8283    4.0817 C   0  0  0  0  0
    2.9969   -0.6262   11.1397 C   0  0  0  0  0
   12.1899    5.5777    2.7602 C   0  0  0  0  0
    1.5441   -1.0972   11.0468 C   0  0  0  0  0
   13.6580    5.9165    2.4988 C   0  0  0  0  0
    1.0968   -1.8073   12.3249 C   0  0  0  0  0
   13.8188    6.6870    1.1868 C   0  0  0  0  0
   -0.3425   -2.3083   12.2016 C   0  0  0  0  0
   15.2856    7.0062    0.9017 C   0  0  0  0  0
   -0.8028   -3.0041   13.4718 C   0  0  0  0  0
   15.4429    7.7881   -0.3935 C   0  0  0  0  0
    9.1591    1.7991    7.2046 H   0  0  0  0  0
    8.8517    3.3524    7.9880 H   0  0  0  0  0
    6.4713    3.2742    7.1904 H   0  0  0  0  0
    6.7873    1.7226    6.4141 H   0  0  0  0  0
    7.3642    0.7397    8.6650 H   0  0  0  0  0
    6.9764    2.2889    9.4206 H   0  0  0  0  0
    8.4937    2.8051    4.9924 H   0  0  0  0  0
    8.2396    4.3577    5.7884 H   0  0  0  0  0
    5.0424    0.5994    7.7459 H   0  0  0  0  0
    4.6451    2.1464    8.4935 H   0  0  0  0  0
   10.9023    2.8430    5.6612 H   0  0  0  0  0
   10.6570    4.3928    6.4724 H   0  0  0  0  0
    5.0553    1.1870   10.7535 H   0  0  0  0  0
    5.5241   -0.3552   10.0309 H   0  0  0  0  0
   10.1656    3.8737    3.4901 H   0  0  0  0  0
    9.9441    5.4213    4.3067 H   0  0  0  0  0
    3.2571   -0.5704    8.9981 H   0  0  0  0  0
    2.7791    0.9726    9.7070 H   0  0  0  0  0
   12.3836    5.4416    4.9093 H   0  0  0  0  0
   12.5962    3.9034    4.0678 H   0  0  0  0  0
    3.6526   -1.4881   11.3122 H   0  0  0  0  0
    3.1147    0.0487   11.9959 H   0  0  0  0  0
   11.5991    6.5015    2.7794 H   0  0  0  0  0
   11.8044    4.9658    1.9357 H   0  0  0  0  0
    0.8900   -0.2373   10.8587 H   0  0  0  0  0
    1.4353   -1.7775   10.1934 H   0  0  0  0  0
   14.2471    4.9920    2.4596 H   0  0  0  0  0
   14.0515    6.5169    3.3283 H   0  0  0  0  0
    1.7643   -2.6535   12.5301 H   0  0  0  0  0
    1.1770   -1.1184   13.1751 H   0  0  0  0  0
   13.2429    7.6188    1.2363 H   0  0  0  0  0
   13.4060    6.0960    0.3604 H   0  0  0  0  0
   -1.0129   -1.4680   11.9889 H   0  0  0  0  0
   -0.4213   -3.0071   11.3610 H   0  0  0  0  0
   15.7091    7.5898    1.7279 H   0  0  0  0  0
   15.8620    6.0759    0.8326 H   0  0  0  0  0
   -1.8310   -3.3621   13.3563 H   0  0  0  0  0
   -0.1672   -3.8659   13.7006 H   0  0  0  0  0
   -0.7756   -2.3200   14.3262 H   0  0  0  0  0
   15.0396    7.2271   -1.2420 H   0  0  0  0  0
   16.5010    7.9876   -0.5895 H   0  0  0  0  0
   14.9210    8.7482   -0.3365 H   0  0  0  0  0
  1  2  1  0  0  0
  1  4  1  0  0  0
  1 21  1  0  0  0
  1 22  1  0  0  0
  2  3  1  0  0  0
  2 23  1  0  0  0
  2 24  1  0  0  0
  3  5  1  0  0  0
  3 25  1  0  0  0
  3 26  1  0  0  0
  4  6  1  0  0  0
  4 27  1  0  0  0
  4 28  1  0  0  0
  5  7  1  0  0  0
  5 29  1  0  0  0
  5 30  1  0  0  0
  6  8  1  0  0  0
  6 31  1  0  0  0
  6 32  1  0  0  0
  7  9  1  0  0  0
  7 33  1  0  0  0
  7 34  1  0  0  0
  8 10  1  0  0  0
  8 35  1  0  0  0
  8 36  1  0  0  0
  9 11  1  0  0  0
  9 37  1  0  0  0
  9 38  1  0  0  0
 10 12  1  0  0  0
 10 39  1  0  0  0
 10 40  1  0  0  0
 11 13  1  0  0  0
 11 41  1  0  0  0
 11 42  1  0  0  0
 12 14  1  0  0  0
 12 43  1  0  0  0
 12 44  1  0  0  0
 13 15  1  0  0  0
 13 45  1  0  0  0
 13 46  1  0  0  0
 14 16  1  0  0  0
 14 47  1  0  0  0
 14 48  1  0  0  0
 15 17  1  0  0  0
 15 49  1  0  0  0
 15 50  1  0  0  0
 16 18  1  0  0  0
 16 51  1  0  0  0
 16 52  1  0  0  0
 17 19  1  0  0  0
 17 53  1  0  0  0
 17 54  1  0  0  0
 18 20  1  0  0  0
 18 55  1  0  0  0
 18 56  1  0  0  0
 19 57  1  0  0  0
 19 58  1  0  0  0
 19 59  1  0  0  0
 20 60  1  0  0  0
 20 61  1  0  0  0
 20 62  1  0  0  0
M  END
