"n-hexanal", ID: 6184
  Marvin  12300703363D       www.chemspider.com   

 19 18  0  0  0  0            999 V2000
   -3.5530    2.6523   -0.0000 O   0  0  0  0  0  0  0  0  0  0  0  0
    0.6073    0.0445    0.0000 C   0  0  0  0  0  0  0  0  0  0  0  0
   -0.9403    0.0854    0.0000 C   0  0  0  0  0  0  0  0  0  0  0  0
    1.1833   -1.3939   -0.0000 C   0  0  0  0  0  0  0  0  0  0  0  0
   -1.5239    1.5222   -0.0000 C   0  0  0  0  0  0  0  0  0  0  0  0
    2.7256   -1.4276   -0.0000 C   0  0  0  0  0  0  0  0  0  0  0  0
   -2.9683    1.5795   -0.0000 C   0  0  0  0  0  0  0  0  0  0  0  0
    0.9763    0.5744    0.8828 H   0  0  0  0  0  0  0  0  0  0  0  0
    0.9763    0.5744   -0.8828 H   0  0  0  0  0  0  0  0  0  0  0  0
   -1.3055   -0.4469   -0.8836 H   0  0  0  0  0  0  0  0  0  0  0  0
   -1.3055   -0.4469    0.8836 H   0  0  0  0  0  0  0  0  0  0  0  0
    0.8238   -1.9309   -0.8821 H   0  0  0  0  0  0  0  0  0  0  0  0
    0.8238   -1.9309    0.8821 H   0  0  0  0  0  0  0  0  0  0  0  0
   -1.1597    2.0541    0.8833 H   0  0  0  0  0  0  0  0  0  0  0  0
   -1.1597    2.0541   -0.8833 H   0  0  0  0  0  0  0  0  0  0  0  0
    3.0788   -2.4603    0.0000 H   0  0  0  0  0  0  0  0  0  0  0  0
    3.1201   -0.9288   -0.8876 H   0  0  0  0  0  0  0  0  0  0  0  0
    3.1201   -0.9288    0.8876 H   0  0  0  0  0  0  0  0  0  0  0  0
   -3.5196    0.7542   -0.0000 H   0  0  0  0  0  0  0  0  0  0  0  0
  1  7  2  0  0  0  0
  2  3  1  0  0  0  0
  2  4  1  0  0  0  0
  2  8  1  0  0  0  0
  2  9  1  0  0  0  0
  3  5  1  0  0  0  0
  3 10  1  0  0  0  0
  3 11  1  0  0  0  0
  4  6  1  0  0  0  0
  4 12  1  0  0  0  0
  4 13  1  0  0  0  0
  5  7  1  0  0  0  0
  5 14  1  0  0  0  0
  5 15  1  0  0  0  0
  6 16  1  0  0  0  0
  6 17  1  0  0  0  0
  6 18  1  0  0  0  0
  7 19  1  0  0  0  0
M  END
$$$$
