Heptane, ID: C142825
  NIST    04042217083D 1   1.00000     0.00000      
NIST Chemistry WebBook
 23 22  0     0  0              1 V2000
    4.9119    1.1117    1.6160 C   0  0  0  0  0  0           0  0  0
    3.6978    1.8855    1.1285 C   0  0  0  0  0  0           0  0  0
    2.4040    1.2047    1.5468 C   0  0  0  0  0  0           0  0  0
    6.2065    1.7895    1.1965 C   0  0  0  0  0  0           0  0  0
    1.1708    1.9589    1.0725 C   0  0  0  0  0  0           0  0  0
    7.4159    1.0214    1.6802 C   0  0  0  0  0  0           0  0  0
    0.9041    3.2087    1.8814 C   0  0  0  0  0  0           0  0  0
    4.8843    0.0753    1.2230 H   0  0  0  0  0  0           0  0  0
    4.8794    1.0110    2.7196 H   0  0  0  0  0  0           0  0  0
    3.7266    2.9218    1.5233 H   0  0  0  0  0  0           0  0  0
    3.7322    1.9883    0.0250 H   0  0  0  0  0  0           0  0  0
    2.3839    0.1736    1.1402 H   0  0  0  0  0  0           0  0  0
    2.3759    1.0904    2.6492 H   0  0  0  0  0  0           0  0  0
    6.2340    2.8252    1.5899 H   0  0  0  0  0  0           0  0  0
    6.2388    1.8907    0.0934 H   0  0  0  0  0  0           0  0  0
    1.2758    2.2178    0.0000 H   0  0  0  0  0  0           0  0  0
    0.2900    1.2893    1.1316 H   0  0  0  0  0  0           0  0  0
    7.4323    0.9394    2.7752 H   0  0  0  0  0  0           0  0  0
    8.3484    1.5122    1.3742 H   0  0  0  0  0  0           0  0  0
    7.4348    0.0000    1.2773 H   0  0  0  0  0  0           0  0  0
    1.7349    3.9244    1.8126 H   0  0  0  0  0  0           0  0  0
    0.7607    2.9796    2.9459 H   0  0  0  0  0  0           0  0  0
    0.0000    3.7234    1.5317 H   0  0  0  0  0  0           0  0  0
  1  2  1  0     0  0
  1  4  1  0     0  0
  1  8  1  0     0  0
  1  9  1  0     0  0
  2  3  1  0     0  0
  2 10  1  0     0  0
  2 11  1  0     0  0
  3  5  1  0     0  0
  3 12  1  0     0  0
  3 13  1  0     0  0
  4  6  1  0     0  0
  4 14  1  0     0  0
  4 15  1  0     0  0
  5  7  1  0     0  0
  5 16  1  0     0  0
  5 17  1  0     0  0
  6 18  1  0     0  0
  6 19  1  0     0  0
  6 20  1  0     0  0
  7 21  1  0     0  0
  7 22  1  0     0  0
  7 23  1  0     0  0
M  END
