
 OpenBabel08311014263D

 23 22  0  0  0  0  0  0  0  0999 V2000
    4.9152    1.1070    1.6205 C   0  0  0  0  0
    3.6906    1.8807    1.1286 C   0  0  0  0  0
    2.3913    1.1930    1.5512 C   0  0  0  0  0
    6.2133    1.7987    1.2058 C   0  0  0  0  0
    1.1678    1.9607    1.0515 C   0  0  0  0  0
    7.4326    1.0285    1.6861 C   0  0  0  0  0
   -0.1258    1.2849    1.4773 C   0  0  0  0  0
    4.8942    0.0891    1.2124 H   0  0  0  0  0
    4.8792    1.0177    2.7130 H   0  0  0  0  0
    3.7139    2.9005    1.5317 H   0  0  0  0  0
    3.7239    1.9641    0.0355 H   0  0  0  0  0
    2.3704    0.1706    1.1545 H   0  0  0  0  0
    2.3557    1.1159    2.6447 H   0  0  0  0  0
    6.2432    2.8133    1.6195 H   0  0  0  0  0
    6.2541    1.8919    0.1144 H   0  0  0  0  0
    1.1844    2.9844    1.4432 H   0  0  0  0  0
    1.1936    2.0311   -0.0421 H   0  0  0  0  0
    7.4383    0.9428    2.7777 H   0  0  0  0  0
    8.3503    1.5416    1.3810 H   0  0  0  0  0
    7.4512    0.0189    1.2621 H   0  0  0  0  0
   -0.1993    1.2306    2.5682 H   0  0  0  0  0
   -0.1875    0.2678    1.0774 H   0  0  0  0  0
   -0.9878    1.8485    1.1066 H   0  0  0  0  0
  1  2  1  0  0  0
  1  4  1  0  0  0
  1  8  1  0  0  0
  1  9  1  0  0  0
  2  3  1  0  0  0
  2 10  1  0  0  0
  2 11  1  0  0  0
  3  5  1  0  0  0
  3 12  1  0  0  0
  3 13  1  0  0  0
  4  6  1  0  0  0
  4 14  1  0  0  0
  4 15  1  0  0  0
  5  7  1  0  0  0
  5 16  1  0  0  0
  5 17  1  0  0  0
  6 18  1  0  0  0
  6 19  1  0  0  0
  6 20  1  0  0  0
  7 21  1  0  0  0
  7 22  1  0  0  0
  7 23  1  0  0  0
M  END
