"n-tetradecanoic acid", ID: 11005
  Marvin  12300703363D        www.chemspider.com  

 44 43  0  0  0  0            999 V2000
   -7.5334    5.5138    0.0000 O   0  0  0  0  0  0  0  0  0  0  0  0
   -7.7210    3.4421    0.0000 O   0  0  0  0  0  0  0  0  0  0  0  0
    0.7742   -0.0575    0.0000 C   0  0  0  0  0  0  0  0  0  0  0  0
   -0.7661   -0.0230   -0.0000 C   0  0  0  0  0  0  0  0  0  0  0  0
    1.3080   -1.5043   -0.0000 C   0  0  0  0  0  0  0  0  0  0  0  0
   -1.3004    1.4243    0.0000 C   0  0  0  0  0  0  0  0  0  0  0  0
    2.8495   -1.5374    0.0000 C   0  0  0  0  0  0  0  0  0  0  0  0
   -2.8413    1.4538    0.0000 C   0  0  0  0  0  0  0  0  0  0  0  0
    3.3950   -2.9814    0.0000 C   0  0  0  0  0  0  0  0  0  0  0  0
   -3.3997    2.8937   -0.0000 C   0  0  0  0  0  0  0  0  0  0  0  0
    4.9388   -3.0129   -0.0000 C   0  0  0  0  0  0  0  0  0  0  0  0
   -4.9442    2.9044    0.0000 C   0  0  0  0  0  0  0  0  0  0  0  0
    5.5062   -4.4506    0.0000 C   0  0  0  0  0  0  0  0  0  0  0  0
   -5.5411    4.3334   -0.0000 C   0  0  0  0  0  0  0  0  0  0  0  0
    7.0472   -4.4763    0.0000 C   0  0  0  0  0  0  0  0  0  0  0  0
   -6.9868    4.4183   -0.0000 C   0  0  0  0  0  0  0  0  0  0  0  0
    1.1474    0.4668    0.8852 H   0  0  0  0  0  0  0  0  0  0  0  0
    1.1474    0.4668   -0.8852 H   0  0  0  0  0  0  0  0  0  0  0  0
   -1.1393   -0.5478   -0.8849 H   0  0  0  0  0  0  0  0  0  0  0  0
   -1.1393   -0.5478    0.8849 H   0  0  0  0  0  0  0  0  0  0  0  0
    0.9334   -2.0278    0.8850 H   0  0  0  0  0  0  0  0  0  0  0  0
    0.9334   -2.0278   -0.8850 H   0  0  0  0  0  0  0  0  0  0  0  0
   -0.9262    1.9479   -0.8851 H   0  0  0  0  0  0  0  0  0  0  0  0
   -0.9262    1.9479    0.8851 H   0  0  0  0  0  0  0  0  0  0  0  0
    3.2193   -1.0098   -0.8846 H   0  0  0  0  0  0  0  0  0  0  0  0
    3.2193   -1.0098    0.8846 H   0  0  0  0  0  0  0  0  0  0  0  0
   -3.2083    0.9245   -0.8846 H   0  0  0  0  0  0  0  0  0  0  0  0
   -3.2083    0.9245    0.8846 H   0  0  0  0  0  0  0  0  0  0  0  0
    3.0207   -3.5056   -0.8844 H   0  0  0  0  0  0  0  0  0  0  0  0
    3.0207   -3.5056    0.8844 H   0  0  0  0  0  0  0  0  0  0  0  0
   -3.0298    3.4216   -0.8841 H   0  0  0  0  0  0  0  0  0  0  0  0
   -3.0298    3.4216    0.8841 H   0  0  0  0  0  0  0  0  0  0  0  0
    5.3037   -2.4812   -0.8839 H   0  0  0  0  0  0  0  0  0  0  0  0
    5.3037   -2.4812    0.8839 H   0  0  0  0  0  0  0  0  0  0  0  0
   -5.3007    2.3680   -0.8846 H   0  0  0  0  0  0  0  0  0  0  0  0
   -5.3007    2.3680    0.8846 H   0  0  0  0  0  0  0  0  0  0  0  0
    5.1442   -4.9844   -0.8831 H   0  0  0  0  0  0  0  0  0  0  0  0
    5.1442   -4.9844    0.8831 H   0  0  0  0  0  0  0  0  0  0  0  0
   -5.1697    4.8611    0.8828 H   0  0  0  0  0  0  0  0  0  0  0  0
   -5.1697    4.8611   -0.8828 H   0  0  0  0  0  0  0  0  0  0  0  0
    7.4012   -5.5079   -0.0000 H   0  0  0  0  0  0  0  0  0  0  0  0
    7.4381   -3.9749   -0.8877 H   0  0  0  0  0  0  0  0  0  0  0  0
    7.4381   -3.9749    0.8877 H   0  0  0  0  0  0  0  0  0  0  0  0
   -7.0520    6.2505    0.0000 H   0  0  0  0  0  0  0  0  0  0  0  0
  1 16  1  0  0  0  0
  1 44  1  0  0  0  0
  2 16  2  0  0  0  0
  3  4  1  0  0  0  0
  3  5  1  0  0  0  0
  3 17  1  0  0  0  0
  3 18  1  0  0  0  0
  4  6  1  0  0  0  0
  4 19  1  0  0  0  0
  4 20  1  0  0  0  0
  5  7  1  0  0  0  0
  5 21  1  0  0  0  0
  5 22  1  0  0  0  0
  6  8  1  0  0  0  0
  6 23  1  0  0  0  0
  6 24  1  0  0  0  0
  7  9  1  0  0  0  0
  7 25  1  0  0  0  0
  7 26  1  0  0  0  0
  8 10  1  0  0  0  0
  8 27  1  0  0  0  0
  8 28  1  0  0  0  0
  9 11  1  0  0  0  0
  9 29  1  0  0  0  0
  9 30  1  0  0  0  0
 10 12  1  0  0  0  0
 10 31  1  0  0  0  0
 10 32  1  0  0  0  0
 11 13  1  0  0  0  0
 11 33  1  0  0  0  0
 11 34  1  0  0  0  0
 12 14  1  0  0  0  0
 12 35  1  0  0  0  0
 12 36  1  0  0  0  0
 13 15  1  0  0  0  0
 13 37  1  0  0  0  0
 13 38  1  0  0  0  0
 14 16  1  0  0  0  0
 14 39  1  0  0  0  0
 14 40  1  0  0  0  0
 15 41  1  0  0  0  0
 15 42  1  0  0  0  0
 15 43  1  0  0  0  0
M  END
$$$$
