Propane, 2,2-dimethyl-, ID: C463821
  NIST    04042217083D 1   1.00000     0.00000      
NIST Chemistry WebBook
 17 16  0     0  0              1 V2000
    1.0880    1.0523    3.3031 C   0  0  0  0  0  0           0  0  0
    1.8149    1.7615    2.1633 C   0  0  0  0  0  0           0  0  0
    3.3208    1.7072    2.4081 C   0  0  0  0  0  0           0  0  0
    1.4887    1.0687    0.8426 C   0  0  0  0  0  0           0  0  0
    1.3621    3.2180    2.0993 C   0  0  0  0  0  0           0  0  0
    1.3925    0.0000    3.3776 H   0  0  0  0  0  0           0  0  0
    1.3008    1.5279    4.2696 H   0  0  0  0  0  0           0  0  0
    0.0000    1.0725    3.1566 H   0  0  0  0  0  0           0  0  0
    3.6799    0.6708    2.4596 H   0  0  0  0  0  0           0  0  0
    3.8746    2.2100    1.6043 H   0  0  0  0  0  0           0  0  0
    3.5898    2.1981    3.3528 H   0  0  0  0  0  0           0  0  0
    1.8009    0.0161    0.8561 H   0  0  0  0  0  0           0  0  0
    0.4107    1.0915    0.6352 H   0  0  0  0  0  0           0  0  0
    1.9983    1.5545    0.0000 H   0  0  0  0  0  0           0  0  0
    1.5838    3.7470    3.0354 H   0  0  0  0  0  0           0  0  0
    1.8662    3.7576    1.2868 H   0  0  0  0  0  0           0  0  0
    0.2805    3.2926    1.9251 H   0  0  0  0  0  0           0  0  0
  1  2  1  0     0  0
  1  6  1  0     0  0
  1  7  1  0     0  0
  1  8  1  0     0  0
  2  3  1  0     0  0
  2  4  1  0     0  0
  2  5  1  0     0  0
  3  9  1  0     0  0
  3 10  1  0     0  0
  3 11  1  0     0  0
  4 12  1  0     0  0
  4 13  1  0     0  0
  4 14  1  0     0  0
  5 15  1  0     0  0
  5 16  1  0     0  0
  5 17  1  0     0  0
M  END
