Propane, 2-methoxy-2-methyl-, ID: C1634044
  NIST    04042217083D 1   1.00000     0.00000      
NIST Chemistry WebBook
 18 17  0     0  0              1 V2000
    1.8656    0.4782    1.0283 O   0  0  0  0  0  0           0  0  0
    2.7549    1.3973    1.6953 C   0  0  0  0  0  0           0  0  0
    2.7902    1.1523    3.2080 C   0  0  0  0  0  0           0  0  0
    4.1314    1.0997    1.0919 C   0  0  0  0  0  0           0  0  0
    2.3601    2.8509    1.4095 C   0  0  0  0  0  0           0  0  0
    0.5198    0.5561    1.4133 C   0  0  0  0  0  0           0  0  0
    1.8512    1.4537    3.6912 H   0  0  0  0  0  0           0  0  0
    2.9581    0.0927    3.4407 H   0  0  0  0  0  0           0  0  0
    3.6000    1.7276    3.6750 H   0  0  0  0  0  0           0  0  0
    4.4569    0.0751    1.3148 H   0  0  0  0  0  0           0  0  0
    4.1308    1.2160    0.0000 H   0  0  0  0  0  0           0  0  0
    4.8851    1.7860    1.4989 H   0  0  0  0  0  0           0  0  0
    1.2948    3.0201    1.6381 H   0  0  0  0  0  0           0  0  0
    2.5136    3.1111    0.3544 H   0  0  0  0  0  0           0  0  0
    2.9527    3.5468    2.0155 H   0  0  0  0  0  0           0  0  0
    0.1552    1.5944    1.4536 H   0  0  0  0  0  0           0  0  0
    0.0000    0.0000    0.6295 H   0  0  0  0  0  0           0  0  0
    0.3545    0.0773    2.3856 H   0  0  0  0  0  0           0  0  0
  1  2  1  0     0  0
  1  6  1  0     0  0
  2  3  1  0     0  0
  2  4  1  0     0  0
  2  5  1  0     0  0
  3  7  1  0     0  0
  3  8  1  0     0  0
  3  9  1  0     0  0
  4 10  1  0     0  0
  4 11  1  0     0  0
  4 12  1  0     0  0
  5 13  1  0     0  0
  5 14  1  0     0  0
  5 15  1  0     0  0
  6 16  1  0     0  0
  6 17  1  0     0  0
  6 18  1  0     0  0
M  END
